version 3
run Wireless06-0-20240322-11:37:25-15488
attr configname Wireless06
attr datetime 20240322-11:37:25
attr datetimef 20240322-113725
attr experiment Wireless06
attr inifile omnetpp.ini
attr iterationvars ""
attr iterationvarsd ""
attr iterationvarsf ""
attr measurement ""
attr network WirelessB
attr processid 15488
attr repetition 0
attr replication #0
attr resultdir results
attr runnumber 0
attr seedset 0
config image-path ../../inet4.5/images
config description "Using CSMA to better utilize the medium"
config extends Wireless05
config *.host*.wlan[0].typename WirelessInterface
config *.host*.wlan[0].radio.typename UnitDiskRadio
config *.host*.wlan[0].mac.typename CsmaCaMac
config *.host*.wlan[0].mac.ackTimeout 300us
config *.host*.wlan[0].queue.typename DropTailQueue
config *.host*.wlan[0].queue.packetCapacity -1
config description "Taking interference into account"
config extends Wireless04
config *.host*.wlan[0].radio.receiver.ignoreInterference false
config *.host*.wlan[0].radio.transmitter.analogModel.interferenceRange 500m
config *.hostA.wlan[0].radio.displayInterferenceRange true
config *.visualizer.dataLinkVisualizer.packetFilter "\"\""
config description "Setting up static routing"
config extends Wireless03
config *.host*.forwarding true
config *.configurator.config "xml(\"<config><interface hosts='**' address='10.0.0.x' netmask='255.255.255.0'/><autoroute metric='errorRate'/></config>\")"
config *.configurator.optimizeRoutes false
config *.host*.ipv4.routingTable.netmaskRoutes "\"\""
config *.visualizer.physicalLinkVisualizer.displayLinks true
config *.visualizer.dataLinkVisualizer.displayLinks true
config *.visualizer.networkRouteVisualizer.displayRoutes true
config *.visualizer.*LinkVisualizer.lineShift 0
config *.visualizer.networkRouteVisualizer.lineShift 0
config *.visualizer.networkRouteVisualizer.packetFilter "\"UDPData*\""
config description "Adding more nodes and decreasing the communication range"
config extends Wireless02
config network WirelessB
config *.host*.wlan[0].radio.transmitter.analogModel.communicationRange 250m
config *.hostR1.wlan[0].radio.displayCommunicationRange true
config description "Setting up some animations and configurations for our wireless net-work, it ext-ends the first net"
config extends Wireless01
config *.hostA.wlan[0].radio.displayCommunicationRange true
config *.visualizer.sceneVisualizer.descriptionFigure "\"title\""
config *.visualizer.mediumVisualizer.displaySignals true
config *.visualizer.physicalLinkVisualizer.displayLinks true
config *.visualizer.physicalLinkVisualizer.packetFilter "\"UDPData*\""
config description "Two hosts communicating wirelessly"
config network WirelessA
config sim-time-limit 20s
config *.radioMedium.signalAnalogRepresentation "\"unitDisk\""
config *.host*.ipv4.arp.typename GlobalArp
config *.hostA.numApps 1
config *.hostA.app[0].typename UdpBasicApp
config *.hostA.app[0].destAddresses "\"hostB\""
config *.hostA.app[0].destPort 5000
config *.hostA.app[0].messageLength 1000B
config *.hostA.app[0].sendInterval exponential(12ms)
config *.hostA.app[0].packetName "\"UDPData\""
config *.hostB.numApps 1
config *.hostB.app[0].typename UdpSink
config *.hostB.app[0].localPort 5000
config *.host*.wlan[0].typename AckingWirelessInterface
config *.host*.wlan[0].mac.useAck false
config *.host*.wlan[0].mac.fullDuplex false
config *.host*.wlan[0].radio.signalAnalogRepresentation "\"unitDisk\""
config *.host*.wlan[0].radio.transmitter.analogModel.communicationRange 500m
config *.host*.wlan[0].radio.receiver.ignoreInterference true
config *.host*.wlan[0].mac.headerLength 23B
config *.host*.**.bitrate 1Mbps

vector 0 WirelessB.hostA.udp passedUpPk:vector(count) ETV
attr interpolationmode none
attr recordingmode vector(count)
attr source packetSentToUpper
attr title "packets passed up, count"
vector 1 WirelessB.hostA.udp droppedPkWrongPort:vector(count) ETV
attr interpolationmode none
attr recordingmode vector(count)
attr source packetDropReasonIsNoPortFound(packetDropped)
attr title "packets dropped (wrong port), count"
vector 2 WirelessB.hostA.udp droppedPkBadChecksum:vector(count) ETV
attr interpolationmode none
attr recordingmode vector(count)
attr source packetDropReasonIsIncorrectlyReceived(packetDropped)
attr title "packets dropped (checksum error), count"
vector 3 WirelessB.hostB.udp passedUpPk:vector(count) ETV
attr interpolationmode none
attr recordingmode vector(count)
attr source packetSentToUpper
attr title "packets passed up, count"
vector 4 WirelessB.hostB.udp droppedPkWrongPort:vector(count) ETV
attr interpolationmode none
attr recordingmode vector(count)
attr source packetDropReasonIsNoPortFound(packetDropped)
attr title "packets dropped (wrong port), count"
vector 5 WirelessB.hostB.udp droppedPkBadChecksum:vector(count) ETV
attr interpolationmode none
attr recordingmode vector(count)
attr source packetDropReasonIsIncorrectlyReceived(packetDropped)
attr title "packets dropped (checksum error), count"
vector 6 WirelessB.hostR1.udp passedUpPk:vector(count) ETV
attr interpolationmode none
attr recordingmode vector(count)
attr source packetSentToUpper
attr title "packets passed up, count"
vector 7 WirelessB.hostR1.udp droppedPkWrongPort:vector(count) ETV
attr interpolationmode none
attr recordingmode vector(count)
attr source packetDropReasonIsNoPortFound(packetDropped)
attr title "packets dropped (wrong port), count"
vector 8 WirelessB.hostR1.udp droppedPkBadChecksum:vector(count) ETV
attr interpolationmode none
attr recordingmode vector(count)
attr source packetDropReasonIsIncorrectlyReceived(packetDropped)
attr title "packets dropped (checksum error), count"
vector 9 WirelessB.hostR2.udp passedUpPk:vector(count) ETV
attr interpolationmode none
attr recordingmode vector(count)
attr source packetSentToUpper
attr title "packets passed up, count"
vector 10 WirelessB.hostR2.udp droppedPkWrongPort:vector(count) ETV
attr interpolationmode none
attr recordingmode vector(count)
attr source packetDropReasonIsNoPortFound(packetDropped)
attr title "packets dropped (wrong port), count"
vector 11 WirelessB.hostR2.udp droppedPkBadChecksum:vector(count) ETV
attr interpolationmode none
attr recordingmode vector(count)
attr source packetDropReasonIsIncorrectlyReceived(packetDropped)
attr title "packets dropped (checksum error), count"
vector 12 WirelessB.hostR3.udp passedUpPk:vector(count) ETV
attr interpolationmode none
attr recordingmode vector(count)
attr source packetSentToUpper
attr title "packets passed up, count"
vector 13 WirelessB.hostR3.udp droppedPkWrongPort:vector(count) ETV
attr interpolationmode none
attr recordingmode vector(count)
attr source packetDropReasonIsNoPortFound(packetDropped)
attr title "packets dropped (wrong port), count"
vector 14 WirelessB.hostR3.udp droppedPkBadChecksum:vector(count) ETV
attr interpolationmode none
attr recordingmode vector(count)
attr source packetDropReasonIsIncorrectlyReceived(packetDropped)
attr title "packets dropped (checksum error), count"
vector 15 WirelessB.hostA.wlan[0].radio radioMode:vector ETV
attr interpolationmode sample-hold
attr recordingmode vector
attr source radioModeChanged
attr title "Radio mode"
vector 16 WirelessB.hostB.wlan[0].radio radioMode:vector ETV
attr interpolationmode sample-hold
attr recordingmode vector
attr source radioModeChanged
attr title "Radio mode"
vector 17 WirelessB.hostR1.wlan[0].radio radioMode:vector ETV
attr interpolationmode sample-hold
attr recordingmode vector
attr source radioModeChanged
attr title "Radio mode"
vector 18 WirelessB.hostR2.wlan[0].radio radioMode:vector ETV
attr interpolationmode sample-hold
attr recordingmode vector
attr source radioModeChanged
attr title "Radio mode"
vector 19 WirelessB.hostR3.wlan[0].radio radioMode:vector ETV
attr interpolationmode sample-hold
attr recordingmode vector
attr source radioModeChanged
attr title "Radio mode"
vector 20 WirelessB.hostA.wlan[0].radio receptionState:vector ETV
attr interpolationmode sample-hold
attr recordingmode vector
attr source receptionStateChanged
attr title "Radio reception state"
vector 21 WirelessB.hostB.wlan[0].radio receptionState:vector ETV
attr interpolationmode sample-hold
attr recordingmode vector
attr source receptionStateChanged
attr title "Radio reception state"
vector 22 WirelessB.hostR1.wlan[0].radio receptionState:vector ETV
attr interpolationmode sample-hold
attr recordingmode vector
attr source receptionStateChanged
attr title "Radio reception state"
vector 23 WirelessB.hostR2.wlan[0].radio receptionState:vector ETV
attr interpolationmode sample-hold
attr recordingmode vector
attr source receptionStateChanged
attr title "Radio reception state"
vector 24 WirelessB.hostR3.wlan[0].radio receptionState:vector ETV
attr interpolationmode sample-hold
attr recordingmode vector
attr source receptionStateChanged
attr title "Radio reception state"
vector 25 WirelessB.hostA.app[0] packetSent:vector(packetBytes) ETV
attr interpolationmode none
attr recordingmode vector(packetBytes)
attr source packetSent
attr title "packets sent, packetBytes"
vector 26 WirelessB.hostA.udp packetSent:vector(packetBytes) ETV
attr interpolationmode none
attr recordingmode vector(packetBytes)
attr source packetSent
attr title "packets sent, packetBytes"
vector 27 WirelessB.hostA.wlan[0].queue incomingPacketLengths:vector ETV
attr interpolationmode none
attr recordingmode vector
attr source packetLength(packetPushStarted)
attr title "incoming packet lengths"
attr unit b
vector 28 WirelessB.hostA.wlan[0].queue queueingTime:vector ETV
attr interpolationmode none
attr recordingmode vector
attr source queueingTime(packetPulled)
attr title "queueing times"
attr unit s
vector 29 WirelessB.hostA.wlan[0].queue outgoingPacketLengths:vector ETV
attr interpolationmode none
attr recordingmode vector
attr source packetLength(packetPulled)
attr title "outgoing packet lengths"
attr unit b
vector 30 WirelessB.hostA.wlan[0].queue queueLength:vector ETV
attr autoWarmupFilter false
attr interpolationmode sample-hold
attr recordingmode vector
attr source "warmup(atomic(constant0(packetPushEnded) + count(packetPushStarted) - count(packetPulled) - count(packetRemoved) - count(packetDropped)))"
attr title "queue length"
attr unit pk
vector 31 WirelessB.hostA.wlan[0].queue queueBitLength:vector ETV
attr autoWarmupFilter false
attr interpolationmode sample-hold
attr recordingmode vector
attr source "warmup(atomic(constant0(packetPushEnded) + sum(packetLength(packetPushStarted)) - sum(packetLength(packetPulled)) - sum(packetLength(packetRemoved)) - sum(packetLength(packetDropped))))"
attr title "queue bit length"
attr unit b
vector 32 WirelessB.hostA.wlan[0].radio transmissionState:vector ETV
attr interpolationmode sample-hold
attr recordingmode vector
attr source transmissionStateChanged
attr title "Radio transmission state"
vector 33 WirelessB.hostR2.wlan[0].mac packetDropNotAddressedToUs:vector(packetBytes) ETV
attr interpolationmode none
attr recordingmode vector(packetBytes)
attr source packetDropReasonIsNotAddressedToUs(packetDropped)
attr title "packet drop: not addressed to us, packetBytes"
vector 34 WirelessB.hostR1.wlan[0].mac packetDropNotAddressedToUs:vector(packetBytes) ETV
attr interpolationmode none
attr recordingmode vector(packetBytes)
attr source packetDropReasonIsNotAddressedToUs(packetDropped)
attr title "packet drop: not addressed to us, packetBytes"
vector 35 WirelessB.hostR3.wlan[0].mac packetDropNotAddressedToUs:vector(packetBytes) ETV
attr interpolationmode none
attr recordingmode vector(packetBytes)
attr source packetDropReasonIsNotAddressedToUs(packetDropped)
attr title "packet drop: not addressed to us, packetBytes"
vector 36 WirelessB.hostB.udp packetReceived:vector(packetBytes) ETV
attr interpolationmode none
attr recordingmode vector(packetBytes)
attr source packetReceived
attr title "packets received, packetBytes"
vector 37 WirelessB.hostB.app[0] packetReceived:vector(packetBytes) ETV
attr interpolationmode none
attr recordingmode vector(packetBytes)
attr source packetReceived
attr title "packets received, packetBytes"
vector 38 WirelessB.hostB.app[0] endToEndDelay:vector ETV
attr interpolationmode none
attr recordingmode vector
attr source dataAge(packetReceived)
attr title "end-to-end delay"
attr unit s
vector 39 WirelessB.hostB.app[0] rcvdPkSeqNo:vector ETV
attr interpolationmode none
attr recordingmode vector
attr source appPkSeqNo(packetReceived)
attr title "received packet sequence number"
vector 40 WirelessB.hostA.wlan[0].queue outgoingDataRate:vector ETV
attr interpolationmode linear
attr recordingmode vector
attr source throughput(packetPulled)
attr title "outgoing datarate"
attr unit bps
vector 41 WirelessB.hostB.app[0] throughput:vector ETV
attr recordingmode vector
attr source throughput(packetReceived)
attr title throughput
attr unit bps
vector 42 WirelessB.hostA.wlan[0].queue incomingDataRate:vector ETV
attr interpolationmode linear
attr recordingmode vector
attr source throughput(packetPushStarted)
attr title "incoming datarate"
attr unit bps
0	0	0	0
1	0	0	0
2	0	0	0
3	0	0	0
3	29	0.031372584801	1
3	47	0.040048584801	2
3	75	0.053979611902	3
3	93	0.063015611902	4
3	125	0.092705251739	5
3	143	0.101341251739	6
3	162	0.110477251739	7
3	185	0.119159146716	8
3	213	0.144122917811	9
3	235	0.153238917811	10
3	254	0.162054917811	11
3	278	0.1724218487	12
3	301	0.185279031192	13
3	323	0.194109047094	14
3	350	0.202822974595	15
3	369	0.211718974595	16
3	401	0.228362368928	17
3	423	0.236998368928	18
3	446	0.245934368928	19
3	465	0.254550368928	20
3	484	0.263266368928	21
3	512	0.281187428356	22
3	530	0.289743428356	23
3	558	0.314329863037	24
3	588	0.323325863037	25
3	611	0.331921863037	26
3	638	0.340957863037	27
3	657	0.349613863037	28
3	676	0.358229863037	29
3	695	0.367065863037	30
3	714	0.376221863037	31
3	742	0.401658828978	32
3	764	0.410354828978	33
3	787	0.419290828978	34
3	814	0.428286828978	35
3	833	0.437142828978	36
3	860	0.446018828978	37
3	887	0.455174828978	38
3	914	0.464070828978	39
3	933	0.472666828978	40
3	952	0.481242828978	41
3	971	0.489978828978	42
3	990	0.498774828978	43
3	1014	0.514103508533	44
3	1049	0.524825250496	45
3	1071	0.533901250496	46
3	1094	0.542477250496	47
3	1121	0.551613250496	48
3	1144	0.560209250496	49
3	1167	0.569105250496	50
3	1186	0.577821250496	51
3	1205	0.586877250496	52
3	1228	0.595433250496	53
3	1247	0.604409250496	54
3	1266	0.613165250496	55
3	1290	0.63351424909	56
3	1313	0.646684400011	57
3	1340	0.659305767861	58
3	1366	0.668041767861	59
3	1385	0.676837767861	60
3	1408	0.685973767861	61
3	1427	0.694549767861	62
3	1450	0.704436271423	63
3	1474	0.719314375264	64
3	1497	0.758676093397	65
3	1520	0.775748386309	66
3	1543	0.786387476758	67
3	1566	0.798791381518	68
3	1593	0.834918761401	69
3	1611	0.843674761401	70
3	1635	0.85668217694	71
3	1662	0.874123999643	72
3	1684	0.883139999643	73
3	1703	0.891955999643	74
3	1727	0.909591115729	75
3	1754	0.920105452654	76
3	1776	0.928661452654	77
3	1803	0.937277452654	78
3	1826	0.946233452654	79
3	1845	0.954909452654	80
3	1868	0.963925452654	81
3	1891	0.972641452654	82
3	1910	0.981617452654	83
3	1938	1.003056988367	84
3	1960	1.012092988367	85
3	1983	1.021068988367	86
3	2002	1.030184988367	87
3	2034	1.064711396698	88
3	2056	1.073367396698	89
3	2075	1.082503396698	90
3	2094	1.091619396698	91
3	2117	1.101101069479	92
3	2145	1.115645303423	93
3	2167	1.124621303423	94
3	2186	1.133737303423	95
3	2210	1.15401196917	96
3	2237	1.178542874975	97
3	2259	1.187498874975	98
3	2278	1.196434874975	99
3	2302	1.212351932563	100
3	2329	1.222574504104	101
3	2351	1.231570504104	102
3	2374	1.240626504104	103
3	2393	1.249222504104	104
3	2429	1.268036766698	105
3	2447	1.276592766698	106
3	2470	1.285368766698	107
3	2493	1.294384766698	108
3	2520	1.303080766698	109
3	2539	1.311656766698	110
3	2566	1.320292766698	111
3	2585	1.329428766698	112
3	2604	1.338124766698	113
3	2623	1.347240766698	114
3	2647	1.359203123036	115
3	2670	1.377793097751	116
3	2693	1.388990883648	117
3	2716	1.403382534527	118
3	2739	1.436038713598	119
3	2762	1.450197871541	120
3	2785	1.460674414464	121
3	2812	1.50076962647	122
3	2834	1.50940562647	123
4	0	0	0
5	0	0	0
6	0	0	0
7	0	0	0
8	0	0	0
9	0	0	0
10	0	0	0
11	0	0	0
12	0	0	0
13	0	0	0
14	0	0	0
15	0	0	0
15	0	0	0
15	0	0	2
15	9	0.022835250545	3
15	19	0.031371250545	2
15	31	0.031511250545	3
15	37	0.040047250545	2
15	54	0.045442277646	3
15	65	0.053978277646	2
15	77	0.054478277646	3
15	83	0.063014277646	2
15	101	0.084167917483	3
15	115	0.092703917483	2
15	127	0.092803917483	3
15	133	0.101339917483	2
15	145	0.101939917483	3
15	152	0.110475917483	2
15	168	0.11062181246	3
15	175	0.11915781246	2
15	193	0.135585583555	3
15	203	0.144121583555	2
15	215	0.144701583555	3
15	225	0.153237583555	2
15	237	0.153517583555	3
15	244	0.162053583555	2
15	261	0.163884514444	3
15	268	0.172420514444	2
15	284	0.176741696936	3
15	291	0.185277696936	2
15	307	0.185571712838	3
15	313	0.194107712838	2
15	329	0.194285640339	3
15	340	0.202821640339	2
15	352	0.203181640339	3
15	359	0.211717640339	2
15	376	0.219825034672	3
15	391	0.228361034672	2
15	403	0.228461034672	3
15	413	0.236997034672	2
15	425	0.237397034672	3
15	436	0.245933034672	2
15	448	0.246013034672	3
15	455	0.254549034672	2
15	467	0.254729034672	3
15	474	0.263265034672	2
15	491	0.2726500941	3
15	502	0.2811860941	2
15	514	0.2812060941	3
15	520	0.2897420941	2
15	538	0.305792528781	3
15	548	0.314328528781	2
15	560	0.314788528781	3
15	578	0.323324528781	2
15	590	0.323384528781	3
15	601	0.331920528781	2
15	613	0.332420528781	3
15	628	0.340956528781	2
15	640	0.341076528781	3
15	647	0.349612528781	2
15	659	0.349692528781	3
15	666	0.358228528781	2
15	678	0.358528528781	3
15	685	0.367064528781	2
15	697	0.367684528781	3
15	704	0.376220528781	2
15	722	0.393121494722	3
15	732	0.401657494722	2
15	744	0.401817494722	3
15	754	0.410353494722	2
15	766	0.410753494722	3
15	777	0.419289494722	2
15	789	0.419749494722	3
15	804	0.428285494722	2
15	816	0.428605494722	3
15	823	0.437141494722	2
15	835	0.437481494722	3
15	850	0.446017494722	2
15	862	0.446637494722	3
15	877	0.455173494722	2
15	889	0.455533494722	3
15	904	0.464069494722	2
15	916	0.464129494722	3
15	923	0.472665494722	2
15	935	0.472705494722	3
15	942	0.481241494722	2
15	954	0.481441494722	3
15	961	0.489977494722	2
15	973	0.490237494722	3
15	980	0.498773494722	2
15	997	0.505566174277	3
15	1004	0.514102174277	2
15	1020	0.51628791624	3
15	1039	0.52482391624	2
15	1051	0.52536391624	3
15	1061	0.53389991624	2
15	1073	0.53393991624	3
15	1084	0.54247591624	2
15	1096	0.54307591624	3
15	1111	0.55161191624	2
15	1123	0.55167191624	3
15	1134	0.56020791624	2
15	1146	0.56056791624	3
15	1157	0.56910391624	2
15	1169	0.56928391624	3
15	1176	0.57781991624	2
15	1188	0.57833991624	3
15	1195	0.58687591624	2
15	1207	0.58689591624	3
15	1218	0.59543191624	2
15	1230	0.59587191624	3
15	1237	0.60440791624	2
15	1249	0.60462791624	3
15	1256	0.61316391624	2
15	1274	0.624976914834	3
15	1280	0.633512914834	2
15	1296	0.638147065755	3
15	1303	0.646683065755	2
15	1319	0.650768433605	3
15	1330	0.659304433605	2
15	1342	0.659504433605	3
15	1356	0.668040433605	2
15	1368	0.668300433605	3
15	1375	0.676836433605	2
15	1387	0.677436433605	3
15	1398	0.685972433605	2
15	1410	0.686012433605	3
15	1417	0.694548433605	2
15	1433	0.695898937167	3
15	1440	0.704434937167	2
15	1457	0.710777041008	3
15	1464	0.719313041008	2
15	1481	0.750138759141	3
15	1487	0.758674759141	2
15	1503	0.767211052053	3
15	1510	0.775747052053	2
15	1526	0.777850142502	3
15	1533	0.786386142502	2
15	1549	0.790254047262	3
15	1556	0.798790047262	2
15	1573	0.826381427145	3
15	1583	0.834917427145	2
15	1595	0.835137427145	3
15	1601	0.843673427145	2
15	1618	0.848144842684	3
15	1625	0.856680842684	2
15	1641	0.865586665387	3
15	1652	0.874122665387	2
15	1664	0.874602665387	3
15	1674	0.883138665387	2
15	1686	0.883418665387	3
15	1693	0.891954665387	2
15	1710	0.901053781473	3
15	1717	0.909589781473	2
15	1733	0.911568118398	3
15	1744	0.920104118398	2
15	1756	0.920124118398	3
15	1766	0.928660118398	2
15	1778	0.928740118398	3
15	1793	0.937276118398	2
15	1805	0.937696118398	3
15	1816	0.946232118398	2
15	1828	0.946372118398	3
15	1835	0.954908118398	2
15	1847	0.955388118398	3
15	1858	0.963924118398	2
15	1870	0.964104118398	3
15	1881	0.972640118398	2
15	1893	0.973080118398	3
15	1900	0.981616118398	2
15	1918	0.994519654111	3
15	1928	1.003055654111	2
15	1940	1.003555654111	3
15	1950	1.012091654111	2
15	1962	1.012531654111	3
15	1973	1.021067654111	2
15	1985	1.021647654111	3
15	1992	1.030183654111	2
15	2010	1.056174062442	3
15	2024	1.064710062442	2
15	2036	1.064830062442	3
15	2046	1.073366062442	2
15	2058	1.073966062442	3
15	2065	1.082502062442	2
15	2077	1.083082062442	3
15	2084	1.091618062442	2
15	2101	1.092563735223	3
15	2107	1.101099735223	2
15	2124	1.107107969167	3
15	2135	1.115643969167	2
15	2147	1.116083969167	3
15	2157	1.124619969167	2
15	2169	1.125199969167	3
15	2176	1.133735969167	2
15	2194	1.145474634914	3
15	2200	1.154010634914	2
15	2217	1.170005540719	3
15	2227	1.178541540719	2
15	2239	1.178961540719	3
15	2249	1.187497540719	2
15	2261	1.187897540719	3
15	2268	1.196433540719	2
15	2285	1.203814598307	3
15	2292	1.212350598307	2
15	2308	1.214037169848	3
15	2319	1.222573169848	2
15	2331	1.223033169848	3
15	2341	1.231569169848	2
15	2353	1.232089169848	3
15	2364	1.240625169848	2
15	2376	1.240685169848	3
15	2383	1.249221169848	2
15	2401	1.259499432442	3
15	2419	1.268035432442	2
15	2431	1.268055432442	3
15	2437	1.276591432442	2
15	2449	1.276831432442	3
15	2460	1.285367432442	2
15	2472	1.285847432442	3
15	2483	1.294383432442	2
15	2499	1.294543432442	3
15	2510	1.303079432442	2
15	2522	1.303119432442	3
15	2529	1.311655432442	2
15	2541	1.311755432442	3
15	2556	1.320291432442	2
15	2568	1.320891432442	3
15	2575	1.329427432442	2
15	2587	1.329587432442	3
15	2594	1.338123432442	2
15	2606	1.338703432442	3
15	2613	1.347239432442	2
15	2630	1.35066578878	3
15	2637	1.35920178878	2
15	2654	1.369255763495	3
15	2660	1.377791763495	2
15	2676	1.380453549392	3
15	2683	1.388989549392	2
15	2699	1.394845200271	3
15	2706	1.403381200271	2
15	2723	1.427501379342	3
15	2729	1.436037379342	2
15	2745	1.441660537285	3
15	2752	1.450196537285	2
15	2768	1.452137080208	3
15	2775	1.460673080208	2
15	2792	1.492232292214	3
15	2802	1.500768292214	2
15	2814	1.500868292214	3
15	2824	1.509404292214	2
15	2836	1.509644292214	3
16	0	0	0
16	0	0	0
16	0	0	2
17	0	0	0
17	0	0	0
17	0	0	2
18	0	0	0
18	0	0	0
18	0	0	2
19	0	0	0
19	0	0	0
19	0	0	2
20	0	0	1
20	9	0.022835250545	0
20	19	0.031371250545	1
20	31	0.031511250545	0
20	37	0.040047250545	1
20	54	0.045442277646	0
20	65	0.053978277646	1
20	77	0.054478277646	0
20	83	0.063014277646	1
20	101	0.084167917483	0
20	115	0.092703917483	1
20	127	0.092803917483	0
20	133	0.101339917483	1
20	145	0.101939917483	0
20	152	0.110475917483	1
20	168	0.11062181246	0
20	175	0.11915781246	1
20	193	0.135585583555	0
20	203	0.144121583555	1
20	215	0.144701583555	0
20	225	0.153237583555	1
20	237	0.153517583555	0
20	244	0.162053583555	1
20	261	0.163884514444	0
20	268	0.172420514444	1
20	284	0.176741696936	0
20	291	0.185277696936	1
20	307	0.185571712838	0
20	313	0.194107712838	1
20	329	0.194285640339	0
20	340	0.202821640339	1
20	352	0.203181640339	0
20	359	0.211717640339	1
20	376	0.219825034672	0
20	391	0.228361034672	1
20	403	0.228461034672	0
20	413	0.236997034672	1
20	425	0.237397034672	0
20	436	0.245933034672	1
20	448	0.246013034672	0
20	455	0.254549034672	1
20	467	0.254729034672	0
20	474	0.263265034672	1
20	491	0.2726500941	0
20	502	0.2811860941	1
20	514	0.2812060941	0
20	520	0.2897420941	1
20	538	0.305792528781	0
20	548	0.314328528781	1
20	560	0.314788528781	0
20	578	0.323324528781	1
20	590	0.323384528781	0
20	601	0.331920528781	1
20	613	0.332420528781	0
20	628	0.340956528781	1
20	640	0.341076528781	0
20	647	0.349612528781	1
20	659	0.349692528781	0
20	666	0.358228528781	1
20	678	0.358528528781	0
20	685	0.367064528781	1
20	697	0.367684528781	0
20	704	0.376220528781	1
20	722	0.393121494722	0
20	732	0.401657494722	1
20	744	0.401817494722	0
20	754	0.410353494722	1
20	766	0.410753494722	0
20	777	0.419289494722	1
20	789	0.419749494722	0
20	804	0.428285494722	1
20	816	0.428605494722	0
20	823	0.437141494722	1
20	835	0.437481494722	0
20	850	0.446017494722	1
20	862	0.446637494722	0
20	877	0.455173494722	1
20	889	0.455533494722	0
20	904	0.464069494722	1
20	916	0.464129494722	0
20	923	0.472665494722	1
20	935	0.472705494722	0
20	942	0.481241494722	1
20	954	0.481441494722	0
20	961	0.489977494722	1
20	973	0.490237494722	0
20	980	0.498773494722	1
20	997	0.505566174277	0
20	1004	0.514102174277	1
20	1020	0.51628791624	0
20	1039	0.52482391624	1
20	1051	0.52536391624	0
20	1061	0.53389991624	1
20	1073	0.53393991624	0
20	1084	0.54247591624	1
20	1096	0.54307591624	0
20	1111	0.55161191624	1
20	1123	0.55167191624	0
20	1134	0.56020791624	1
20	1146	0.56056791624	0
20	1157	0.56910391624	1
20	1169	0.56928391624	0
20	1176	0.57781991624	1
20	1188	0.57833991624	0
20	1195	0.58687591624	1
20	1207	0.58689591624	0
20	1218	0.59543191624	1
20	1230	0.59587191624	0
20	1237	0.60440791624	1
20	1249	0.60462791624	0
20	1256	0.61316391624	1
20	1274	0.624976914834	0
20	1280	0.633512914834	1
20	1296	0.638147065755	0
20	1303	0.646683065755	1
20	1319	0.650768433605	0
20	1330	0.659304433605	1
20	1342	0.659504433605	0
20	1356	0.668040433605	1
20	1368	0.668300433605	0
20	1375	0.676836433605	1
20	1387	0.677436433605	0
20	1398	0.685972433605	1
20	1410	0.686012433605	0
20	1417	0.694548433605	1
20	1433	0.695898937167	0
20	1440	0.704434937167	1
20	1457	0.710777041008	0
20	1464	0.719313041008	1
20	1481	0.750138759141	0
20	1487	0.758674759141	1
20	1503	0.767211052053	0
20	1510	0.775747052053	1
20	1526	0.777850142502	0
20	1533	0.786386142502	1
20	1549	0.790254047262	0
20	1556	0.798790047262	1
20	1573	0.826381427145	0
20	1583	0.834917427145	1
20	1595	0.835137427145	0
20	1601	0.843673427145	1
20	1618	0.848144842684	0
20	1625	0.856680842684	1
20	1641	0.865586665387	0
20	1652	0.874122665387	1
20	1664	0.874602665387	0
20	1674	0.883138665387	1
20	1686	0.883418665387	0
20	1693	0.891954665387	1
20	1710	0.901053781473	0
20	1717	0.909589781473	1
20	1733	0.911568118398	0
20	1744	0.920104118398	1
20	1756	0.920124118398	0
20	1766	0.928660118398	1
20	1778	0.928740118398	0
20	1793	0.937276118398	1
20	1805	0.937696118398	0
20	1816	0.946232118398	1
20	1828	0.946372118398	0
20	1835	0.954908118398	1
20	1847	0.955388118398	0
20	1858	0.963924118398	1
20	1870	0.964104118398	0
20	1881	0.972640118398	1
20	1893	0.973080118398	0
20	1900	0.981616118398	1
20	1918	0.994519654111	0
20	1928	1.003055654111	1
20	1940	1.003555654111	0
20	1950	1.012091654111	1
20	1962	1.012531654111	0
20	1973	1.021067654111	1
20	1985	1.021647654111	0
20	1992	1.030183654111	1
20	2010	1.056174062442	0
20	2024	1.064710062442	1
20	2036	1.064830062442	0
20	2046	1.073366062442	1
20	2058	1.073966062442	0
20	2065	1.082502062442	1
20	2077	1.083082062442	0
20	2084	1.091618062442	1
20	2101	1.092563735223	0
20	2107	1.101099735223	1
20	2124	1.107107969167	0
20	2135	1.115643969167	1
20	2147	1.116083969167	0
20	2157	1.124619969167	1
20	2169	1.125199969167	0
20	2176	1.133735969167	1
20	2194	1.145474634914	0
20	2200	1.154010634914	1
20	2217	1.170005540719	0
20	2227	1.178541540719	1
20	2239	1.178961540719	0
20	2249	1.187497540719	1
20	2261	1.187897540719	0
20	2268	1.196433540719	1
20	2285	1.203814598307	0
20	2292	1.212350598307	1
20	2308	1.214037169848	0
20	2319	1.222573169848	1
20	2331	1.223033169848	0
20	2341	1.231569169848	1
20	2353	1.232089169848	0
20	2364	1.240625169848	1
20	2376	1.240685169848	0
20	2383	1.249221169848	1
20	2401	1.259499432442	0
20	2419	1.268035432442	1
20	2431	1.268055432442	0
20	2437	1.276591432442	1
20	2449	1.276831432442	0
20	2460	1.285367432442	1
20	2472	1.285847432442	0
20	2483	1.294383432442	1
20	2499	1.294543432442	0
20	2510	1.303079432442	1
20	2522	1.303119432442	0
20	2529	1.311655432442	1
20	2541	1.311755432442	0
20	2556	1.320291432442	1
20	2568	1.320891432442	0
20	2575	1.329427432442	1
20	2587	1.329587432442	0
20	2594	1.338123432442	1
20	2606	1.338703432442	0
20	2613	1.347239432442	1
20	2630	1.35066578878	0
20	2637	1.35920178878	1
20	2654	1.369255763495	0
20	2660	1.377791763495	1
20	2676	1.380453549392	0
20	2683	1.388989549392	1
20	2699	1.394845200271	0
20	2706	1.403381200271	1
20	2723	1.427501379342	0
20	2729	1.436037379342	1
20	2745	1.441660537285	0
20	2752	1.450196537285	1
20	2768	1.452137080208	0
20	2775	1.460673080208	1
20	2792	1.492232292214	0
20	2802	1.500768292214	1
20	2814	1.500868292214	0
20	2824	1.509404292214	1
20	2836	1.509644292214	0
21	0	0	1
21	14	0.022836584801	3
21	26	0.031372584801	1
21	36	0.031512584801	3
21	44	0.040048584801	1
21	59	0.045443611902	3
21	72	0.053979611902	1
21	82	0.054479611902	3
21	90	0.063015611902	1
21	106	0.084169251739	3
21	122	0.092705251739	1
21	132	0.092805251739	3
21	140	0.101341251739	1
21	150	0.101941251739	3
21	159	0.110477251739	1
21	173	0.110623146716	3
21	182	0.119159146716	1
21	198	0.135586917811	3
21	210	0.144122917811	1
21	220	0.144702917811	3
21	232	0.153238917811	1
21	242	0.153518917811	3
21	251	0.162054917811	1
21	266	0.1638858487	3
21	275	0.1724218487	1
21	289	0.176743031192	3
21	298	0.185279031192	1
21	312	0.185573047094	3
21	320	0.194109047094	1
21	334	0.194286974595	3
21	347	0.202822974595	1
21	357	0.203182974595	3
21	366	0.211718974595	1
21	381	0.219826368928	3
21	398	0.228362368928	1
21	408	0.228462368928	3
21	420	0.236998368928	1
21	430	0.237398368928	3
21	443	0.245934368928	1
21	453	0.246014368928	3
21	462	0.254550368928	1
21	472	0.254730368928	3
21	481	0.263266368928	1
21	496	0.272651428356	3
21	509	0.281187428356	1
21	519	0.281207428356	3
21	527	0.289743428356	1
21	543	0.305793863037	3
21	555	0.314329863037	1
21	565	0.314789863037	3
21	585	0.323325863037	1
21	595	0.323385863037	3
21	608	0.331921863037	1
21	618	0.332421863037	3
21	635	0.340957863037	1
21	645	0.341077863037	3
21	654	0.349613863037	1
21	664	0.349693863037	3
21	673	0.358229863037	1
21	683	0.358529863037	3
21	692	0.367065863037	1
21	702	0.367685863037	3
21	711	0.376221863037	1
21	727	0.393122828978	3
21	739	0.401658828978	1
21	749	0.401818828978	3
21	761	0.410354828978	1
21	771	0.410754828978	3
21	784	0.419290828978	1
21	794	0.419750828978	3
21	811	0.428286828978	1
21	821	0.428606828978	3
21	830	0.437142828978	1
21	840	0.437482828978	3
21	857	0.446018828978	1
21	867	0.446638828978	3
21	884	0.455174828978	1
21	894	0.455534828978	3
21	911	0.464070828978	1
21	921	0.464130828978	3
21	930	0.472666828978	1
21	940	0.472706828978	3
21	949	0.481242828978	1
21	959	0.481442828978	3
21	968	0.489978828978	1
21	978	0.490238828978	3
21	987	0.498774828978	1
21	1002	0.505567508533	3
21	1011	0.514103508533	1
21	1025	0.516289250496	3
21	1046	0.524825250496	1
21	1056	0.525365250496	3
21	1068	0.533901250496	1
21	1078	0.533941250496	3
21	1091	0.542477250496	1
21	1101	0.543077250496	3
21	1118	0.551613250496	1
21	1128	0.551673250496	3
21	1141	0.560209250496	1
21	1151	0.560569250496	3
21	1164	0.569105250496	1
21	1174	0.569285250496	3
21	1183	0.577821250496	1
21	1193	0.578341250496	3
21	1202	0.586877250496	1
21	1212	0.586897250496	3
21	1225	0.595433250496	1
21	1235	0.595873250496	3
21	1244	0.604409250496	1
21	1254	0.604629250496	3
21	1263	0.613165250496	1
21	1279	0.62497824909	3
21	1287	0.63351424909	1
21	1301	0.638148400011	3
21	1310	0.646684400011	1
21	1324	0.650769767861	3
21	1337	0.659305767861	1
21	1347	0.659505767861	3
21	1363	0.668041767861	1
21	1373	0.668301767861	3
21	1382	0.676837767861	1
21	1392	0.677437767861	3
21	1405	0.685973767861	1
21	1415	0.686013767861	3
21	1424	0.694549767861	1
21	1438	0.695900271423	3
21	1447	0.704436271423	1
21	1462	0.710778375264	3
21	1471	0.719314375264	1
21	1486	0.750140093397	3
21	1494	0.758676093397	1
21	1508	0.767212386309	3
21	1517	0.775748386309	1
21	1531	0.777851476758	3
21	1540	0.786387476758	1
21	1554	0.790255381518	3
21	1563	0.798791381518	1
21	1578	0.826382761401	3
21	1590	0.834918761401	1
21	1600	0.835138761401	3
21	1608	0.843674761401	1
21	1623	0.84814617694	3
21	1632	0.85668217694	1
21	1646	0.865587999643	3
21	1659	0.874123999643	1
21	1669	0.874603999643	3
21	1681	0.883139999643	1
21	1691	0.883419999643	3
21	1700	0.891955999643	1
21	1715	0.901055115729	3
21	1724	0.909591115729	1
21	1738	0.911569452654	3
21	1751	0.920105452654	1
21	1761	0.920125452654	3
21	1773	0.928661452654	1
21	1783	0.928741452654	3
21	1800	0.937277452654	1
21	1810	0.937697452654	3
21	1823	0.946233452654	1
21	1833	0.946373452654	3
21	1842	0.954909452654	1
21	1852	0.955389452654	3
21	1865	0.963925452654	1
21	1875	0.964105452654	3
21	1888	0.972641452654	1
21	1898	0.973081452654	3
21	1907	0.981617452654	1
21	1923	0.994520988367	3
21	1935	1.003056988367	1
21	1945	1.003556988367	3
21	1957	1.012092988367	1
21	1967	1.012532988367	3
21	1980	1.021068988367	1
21	1990	1.021648988367	3
21	1999	1.030184988367	1
21	2015	1.056175396698	3
21	2031	1.064711396698	1
21	2041	1.064831396698	3
21	2053	1.073367396698	1
21	2063	1.073967396698	3
21	2072	1.082503396698	1
21	2082	1.083083396698	3
21	2091	1.091619396698	1
21	2106	1.092565069479	3
21	2114	1.101101069479	1
21	2129	1.107109303423	3
21	2142	1.115645303423	1
21	2152	1.116085303423	3
21	2164	1.124621303423	1
21	2174	1.125201303423	3
21	2183	1.133737303423	1
21	2199	1.14547596917	3
21	2207	1.15401196917	1
21	2222	1.170006874975	3
21	2234	1.178542874975	1
21	2244	1.178962874975	3
21	2256	1.187498874975	1
21	2266	1.187898874975	3
21	2275	1.196434874975	1
21	2290	1.203815932563	3
21	2299	1.212351932563	1
21	2313	1.214038504104	3
21	2326	1.222574504104	1
21	2336	1.223034504104	3
21	2348	1.231570504104	1
21	2358	1.232090504104	3
21	2371	1.240626504104	1
21	2381	1.240686504104	3
21	2390	1.249222504104	1
21	2410	1.259500766698	3
21	2426	1.268036766698	1
21	2436	1.268056766698	3
21	2444	1.276592766698	1
21	2454	1.276832766698	3
21	2467	1.285368766698	1
21	2477	1.285848766698	3
21	2490	1.294384766698	1
21	2504	1.294544766698	3
21	2517	1.303080766698	1
21	2527	1.303120766698	3
21	2536	1.311656766698	1
21	2546	1.311756766698	3
21	2563	1.320292766698	1
21	2573	1.320892766698	3
21	2582	1.329428766698	1
21	2592	1.329588766698	3
21	2601	1.338124766698	1
21	2611	1.338704766698	3
21	2620	1.347240766698	1
21	2635	1.350667123036	3
21	2644	1.359203123036	1
21	2659	1.369257097751	3
21	2667	1.377793097751	1
21	2681	1.380454883648	3
21	2690	1.388990883648	1
21	2704	1.394846534527	3
21	2713	1.403382534527	1
21	2728	1.427502713598	3
21	2736	1.436038713598	1
21	2750	1.441661871541	3
21	2759	1.450197871541	1
21	2773	1.452138414464	3
21	2782	1.460674414464	1
21	2797	1.49223362647	3
21	2809	1.50076962647	1
21	2819	1.50086962647	3
21	2831	1.50940562647	1
22	0	0	1
22	12	0.022835922865	3
22	22	0.031371922865	1
22	34	0.031511922865	3
22	40	0.040047922865	1
22	57	0.045442949966	3
22	68	0.053978949966	1
22	80	0.054478949966	3
22	86	0.063014949966	1
22	104	0.084168589803	3
22	118	0.092704589803	1
22	130	0.092804589803	3
22	136	0.101340589803	1
22	148	0.101940589803	3
22	155	0.110476589803	1
22	171	0.11062248478	3
22	178	0.11915848478	1
22	196	0.135586255875	3
22	206	0.144122255875	1
22	218	0.144702255875	3
22	228	0.153238255875	1
22	240	0.153518255875	3
22	247	0.162054255875	1
22	264	0.163885186764	3
22	271	0.172421186764	1
22	287	0.176742369256	3
22	294	0.185278369256	1
22	310	0.185572385158	3
22	316	0.194108385158	1
22	332	0.194286312659	3
22	343	0.202822312659	1
22	355	0.203182312659	3
22	362	0.211718312659	1
22	379	0.219825706992	3
22	394	0.228361706992	1
22	406	0.228461706992	3
22	416	0.236997706992	1
22	428	0.237397706992	3
22	439	0.245933706992	1
22	451	0.246013706992	3
22	458	0.254549706992	1
22	470	0.254729706992	3
22	477	0.263265706992	1
22	494	0.27265076642	3
22	505	0.28118676642	1
22	517	0.28120676642	3
22	523	0.28974276642	1
22	541	0.305793201101	3
22	551	0.314329201101	1
22	563	0.314789201101	3
22	581	0.323325201101	1
22	593	0.323385201101	3
22	604	0.331921201101	1
22	616	0.332421201101	3
22	631	0.340957201101	1
22	643	0.341077201101	3
22	650	0.349613201101	1
22	662	0.349693201101	3
22	669	0.358229201101	1
22	681	0.358529201101	3
22	688	0.367065201101	1
22	700	0.367685201101	3
22	707	0.376221201101	1
22	725	0.393122167042	3
22	735	0.401658167042	1
22	747	0.401818167042	3
22	757	0.410354167042	1
22	769	0.410754167042	3
22	780	0.419290167042	1
22	792	0.419750167042	3
22	807	0.428286167042	1
22	819	0.428606167042	3
22	826	0.437142167042	1
22	838	0.437482167042	3
22	853	0.446018167042	1
22	865	0.446638167042	3
22	880	0.455174167042	1
22	892	0.455534167042	3
22	907	0.464070167042	1
22	919	0.464130167042	3
22	926	0.472666167042	1
22	938	0.472706167042	3
22	945	0.481242167042	1
22	957	0.481442167042	3
22	964	0.489978167042	1
22	976	0.490238167042	3
22	983	0.498774167042	1
22	1000	0.505566846597	3
22	1007	0.514102846597	1
22	1023	0.51628858856	3
22	1042	0.52482458856	1
22	1054	0.52536458856	3
22	1064	0.53390058856	1
22	1076	0.53394058856	3
22	1087	0.54247658856	1
22	1099	0.54307658856	3
22	1114	0.55161258856	1
22	1126	0.55167258856	3
22	1137	0.56020858856	1
22	1149	0.56056858856	3
22	1160	0.56910458856	1
22	1172	0.56928458856	3
22	1179	0.57782058856	1
22	1191	0.57834058856	3
22	1198	0.58687658856	1
22	1210	0.58689658856	3
22	1221	0.59543258856	1
22	1233	0.59587258856	3
22	1240	0.60440858856	1
22	1252	0.60462858856	3
22	1259	0.61316458856	1
22	1277	0.624977587154	3
22	1283	0.633513587154	1
22	1299	0.638147738075	3
22	1306	0.646683738075	1
22	1322	0.650769105925	3
22	1333	0.659305105925	1
22	1345	0.659505105925	3
22	1359	0.668041105925	1
22	1371	0.668301105925	3
22	1378	0.676837105925	1
22	1390	0.677437105925	3
22	1401	0.685973105925	1
22	1413	0.686013105925	3
22	1420	0.694549105925	1
22	1436	0.695899609487	3
22	1443	0.704435609487	1
22	1460	0.710777713328	3
22	1467	0.719313713328	1
22	1484	0.750139431461	3
22	1490	0.758675431461	1
22	1506	0.767211724373	3
22	1513	0.775747724373	1
22	1529	0.777850814822	3
22	1536	0.786386814822	1
22	1552	0.790254719582	3
22	1559	0.798790719582	1
22	1576	0.826382099465	3
22	1586	0.834918099465	1
22	1598	0.835138099465	3
22	1604	0.843674099465	1
22	1621	0.848145515004	3
22	1628	0.856681515004	1
22	1644	0.865587337707	3
22	1655	0.874123337707	1
22	1667	0.874603337707	3
22	1677	0.883139337707	1
22	1689	0.883419337707	3
22	1696	0.891955337707	1
22	1713	0.901054453793	3
22	1720	0.909590453793	1
22	1736	0.911568790718	3
22	1747	0.920104790718	1
22	1759	0.920124790718	3
22	1769	0.928660790718	1
22	1781	0.928740790718	3
22	1796	0.937276790718	1
22	1808	0.937696790718	3
22	1819	0.946232790718	1
22	1831	0.946372790718	3
22	1838	0.954908790718	1
22	1850	0.955388790718	3
22	1861	0.963924790718	1
22	1873	0.964104790718	3
22	1884	0.972640790718	1
22	1896	0.973080790718	3
22	1903	0.981616790718	1
22	1921	0.994520326431	3
22	1931	1.003056326431	1
22	1943	1.003556326431	3
22	1953	1.012092326431	1
22	1965	1.012532326431	3
22	1976	1.021068326431	1
22	1988	1.021648326431	3
22	1995	1.030184326431	1
22	2013	1.056174734762	3
22	2027	1.064710734762	1
22	2039	1.064830734762	3
22	2049	1.073366734762	1
22	2061	1.073966734762	3
22	2068	1.082502734762	1
22	2080	1.083082734762	3
22	2087	1.091618734762	1
22	2104	1.092564407543	3
22	2110	1.101100407543	1
22	2127	1.107108641487	3
22	2138	1.115644641487	1
22	2150	1.116084641487	3
22	2160	1.124620641487	1
22	2172	1.125200641487	3
22	2179	1.133736641487	1
22	2197	1.145475307234	3
22	2203	1.154011307234	1
22	2220	1.170006213039	3
22	2230	1.178542213039	1
22	2242	1.178962213039	3
22	2252	1.187498213039	1
22	2264	1.187898213039	3
22	2271	1.196434213039	1
22	2288	1.203815270627	3
22	2295	1.212351270627	1
22	2311	1.214037842168	3
22	2322	1.222573842168	1
22	2334	1.223033842168	3
22	2344	1.231569842168	1
22	2356	1.232089842168	3
22	2367	1.240625842168	1
22	2379	1.240685842168	3
22	2386	1.249221842168	1
22	2404	1.259500104762	3
22	2422	1.268036104762	1
22	2434	1.268056104762	3
22	2440	1.276592104762	1
22	2452	1.276832104762	3
22	2463	1.285368104762	1
22	2475	1.285848104762	3
22	2486	1.294384104762	1
22	2502	1.294544104762	3
22	2513	1.303080104762	1
22	2525	1.303120104762	3
22	2532	1.311656104762	1
22	2544	1.311756104762	3
22	2559	1.320292104762	1
22	2571	1.320892104762	3
22	2578	1.329428104762	1
22	2590	1.329588104762	3
22	2597	1.338124104762	1
22	2609	1.338704104762	3
22	2616	1.347240104762	1
22	2633	1.3506664611	3
22	2640	1.3592024611	1
22	2657	1.369256435815	3
22	2663	1.377792435815	1
22	2679	1.380454221712	3
22	2686	1.388990221712	1
22	2702	1.394845872591	3
22	2709	1.403381872591	1
22	2726	1.427502051662	3
22	2732	1.436038051662	1
22	2748	1.441661209605	3
22	2755	1.450197209605	1
22	2771	1.452137752528	3
22	2778	1.460673752528	1
22	2795	1.492232964534	3
22	2805	1.500768964534	1
22	2817	1.500868964534	3
22	2827	1.509404964534	1
23	0	0	1
23	11	0.022835784508	3
23	20	0.031371784508	1
23	33	0.031511784508	3
23	38	0.040047784508	1
23	56	0.045442811609	3
23	66	0.053978811609	1
23	79	0.054478811609	3
23	84	0.063014811609	1
23	103	0.084168451446	3
23	116	0.092704451446	1
23	129	0.092804451446	3
23	134	0.101340451446	1
23	147	0.101940451446	3
23	153	0.110476451446	1
23	170	0.110622346423	3
23	176	0.119158346423	1
23	195	0.135586117518	3
23	204	0.144122117518	1
23	217	0.144702117518	3
23	226	0.153238117518	1
23	239	0.153518117518	3
23	245	0.162054117518	1
23	263	0.163885048407	3
23	269	0.172421048407	1
23	286	0.176742230899	3
23	292	0.185278230899	1
23	309	0.185572246801	3
23	314	0.194108246801	1
23	331	0.194286174302	3
23	341	0.202822174302	1
23	354	0.203182174302	3
23	360	0.211718174302	1
23	378	0.219825568635	3
23	392	0.228361568635	1
23	405	0.228461568635	3
23	414	0.236997568635	1
23	427	0.237397568635	3
23	437	0.245933568635	1
23	450	0.246013568635	3
23	456	0.254549568635	1
23	469	0.254729568635	3
23	475	0.263265568635	1
23	493	0.272650628063	3
23	503	0.281186628063	1
23	516	0.281206628063	3
23	521	0.289742628063	1
23	540	0.305793062744	3
23	549	0.314329062744	1
23	562	0.314789062744	3
23	579	0.323325062744	1
23	592	0.323385062744	3
23	602	0.331921062744	1
23	615	0.332421062744	3
23	629	0.340957062744	1
23	642	0.341077062744	3
23	648	0.349613062744	1
23	661	0.349693062744	3
23	667	0.358229062744	1
23	680	0.358529062744	3
23	686	0.367065062744	1
23	699	0.367685062744	3
23	705	0.376221062744	1
23	724	0.393122028685	3
23	733	0.401658028685	1
23	746	0.401818028685	3
23	755	0.410354028685	1
23	768	0.410754028685	3
23	778	0.419290028685	1
23	791	0.419750028685	3
23	805	0.428286028685	1
23	818	0.428606028685	3
23	824	0.437142028685	1
23	837	0.437482028685	3
23	851	0.446018028685	1
23	864	0.446638028685	3
23	878	0.455174028685	1
23	891	0.455534028685	3
23	905	0.464070028685	1
23	918	0.464130028685	3
23	924	0.472666028685	1
23	937	0.472706028685	3
23	943	0.481242028685	1
23	956	0.481442028685	3
23	962	0.489978028685	1
23	975	0.490238028685	3
23	981	0.498774028685	1
23	999	0.50556670824	3
23	1005	0.51410270824	1
23	1022	0.516288450203	3
23	1040	0.524824450203	1
23	1053	0.525364450203	3
23	1062	0.533900450203	1
23	1075	0.533940450203	3
23	1085	0.542476450203	1
23	1098	0.543076450203	3
23	1112	0.551612450203	1
23	1125	0.551672450203	3
23	1135	0.560208450203	1
23	1148	0.560568450203	3
23	1158	0.569104450203	1
23	1171	0.569284450203	3
23	1177	0.577820450203	1
23	1190	0.578340450203	3
23	1196	0.586876450203	1
23	1209	0.586896450203	3
23	1219	0.595432450203	1
23	1232	0.595872450203	3
23	1238	0.604408450203	1
23	1251	0.604628450203	3
23	1257	0.613164450203	1
23	1276	0.624977448797	3
23	1281	0.633513448797	1
23	1298	0.638147599718	3
23	1304	0.646683599718	1
23	1321	0.650768967568	3
23	1331	0.659304967568	1
23	1344	0.659504967568	3
23	1357	0.668040967568	1
23	1370	0.668300967568	3
23	1376	0.676836967568	1
23	1389	0.677436967568	3
23	1399	0.685972967568	1
23	1412	0.686012967568	3
23	1418	0.694548967568	1
23	1435	0.69589947113	3
23	1441	0.70443547113	1
23	1459	0.710777574971	3
23	1465	0.719313574971	1
23	1483	0.750139293104	3
23	1488	0.758675293104	1
23	1505	0.767211586016	3
23	1511	0.775747586016	1
23	1528	0.777850676465	3
23	1534	0.786386676465	1
23	1551	0.790254581225	3
23	1557	0.798790581225	1
23	1575	0.826381961108	3
23	1584	0.834917961108	1
23	1597	0.835137961108	3
23	1602	0.843673961108	1
23	1620	0.848145376647	3
23	1626	0.856681376647	1
23	1643	0.86558719935	3
23	1653	0.87412319935	1
23	1666	0.87460319935	3
23	1675	0.88313919935	1
23	1688	0.88341919935	3
23	1694	0.89195519935	1
23	1712	0.901054315436	3
23	1718	0.909590315436	1
23	1735	0.911568652361	3
23	1745	0.920104652361	1
23	1758	0.920124652361	3
23	1767	0.928660652361	1
23	1780	0.928740652361	3
23	1794	0.937276652361	1
23	1807	0.937696652361	3
23	1817	0.946232652361	1
23	1830	0.946372652361	3
23	1836	0.954908652361	1
23	1849	0.955388652361	3
23	1859	0.963924652361	1
23	1872	0.964104652361	3
23	1882	0.972640652361	1
23	1895	0.973080652361	3
23	1901	0.981616652361	1
23	1920	0.994520188074	3
23	1929	1.003056188074	1
23	1942	1.003556188074	3
23	1951	1.012092188074	1
23	1964	1.012532188074	3
23	1974	1.021068188074	1
23	1987	1.021648188074	3
23	1993	1.030184188074	1
23	2012	1.056174596405	3
23	2025	1.064710596405	1
23	2038	1.064830596405	3
23	2047	1.073366596405	1
23	2060	1.073966596405	3
23	2066	1.082502596405	1
23	2079	1.083082596405	3
23	2085	1.091618596405	1
23	2103	1.092564269186	3
23	2108	1.101100269186	1
23	2126	1.10710850313	3
23	2136	1.11564450313	1
23	2149	1.11608450313	3
23	2158	1.12462050313	1
23	2171	1.12520050313	3
23	2177	1.13373650313	1
23	2196	1.145475168877	3
23	2201	1.154011168877	1
23	2219	1.170006074682	3
23	2228	1.178542074682	1
23	2241	1.178962074682	3
23	2250	1.187498074682	1
23	2263	1.187898074682	3
23	2269	1.196434074682	1
23	2287	1.20381513227	3
23	2293	1.21235113227	1
23	2310	1.214037703811	3
23	2320	1.222573703811	1
23	2333	1.223033703811	3
23	2342	1.231569703811	1
23	2355	1.232089703811	3
23	2365	1.240625703811	1
23	2378	1.240685703811	3
23	2384	1.249221703811	1
23	2403	1.259499966405	3
23	2420	1.268035966405	1
23	2433	1.268055966405	3
23	2438	1.276591966405	1
23	2451	1.276831966405	3
23	2461	1.285367966405	1
23	2474	1.285847966405	3
23	2484	1.294383966405	1
23	2501	1.294543966405	3
23	2511	1.303079966405	1
23	2524	1.303119966405	3
23	2530	1.311655966405	1
23	2543	1.311755966405	3
23	2557	1.320291966405	1
23	2570	1.320891966405	3
23	2576	1.329427966405	1
23	2589	1.329587966405	3
23	2595	1.338123966405	1
23	2608	1.338703966405	3
23	2614	1.347239966405	1
23	2632	1.350666322743	3
23	2638	1.359202322743	1
23	2656	1.369256297458	3
23	2661	1.377792297458	1
23	2678	1.380454083355	3
23	2684	1.388990083355	1
23	2701	1.394845734234	3
23	2707	1.403381734234	1
23	2725	1.427501913305	3
23	2730	1.436037913305	1
23	2747	1.441661071248	3
23	2753	1.450197071248	1
23	2770	1.452137614171	3
23	2776	1.460673614171	1
23	2794	1.492232826177	3
23	2803	1.500768826177	1
23	2816	1.500868826177	3
23	2825	1.509404826177	1
24	0	0	1
24	13	0.022836334628	3
24	24	0.031372334628	1
24	35	0.031512334628	3
24	42	0.040048334628	1
24	58	0.045443361729	3
24	70	0.053979361729	1
24	81	0.054479361729	3
24	88	0.063015361729	1
24	105	0.084169001566	3
24	120	0.092705001566	1
24	131	0.092805001566	3
24	138	0.101341001566	1
24	149	0.101941001566	3
24	157	0.110477001566	1
24	172	0.110622896543	3
24	180	0.119158896543	1
24	197	0.135586667638	3
24	208	0.144122667638	1
24	219	0.144702667638	3
24	230	0.153238667638	1
24	241	0.153518667638	3
24	249	0.162054667638	1
24	265	0.163885598527	3
24	273	0.172421598527	1
24	288	0.176742781019	3
24	296	0.185278781019	1
24	311	0.185572796921	3
24	318	0.194108796921	1
24	333	0.194286724422	3
24	345	0.202822724422	1
24	356	0.203182724422	3
24	364	0.211718724422	1
24	380	0.219826118755	3
24	396	0.228362118755	1
24	407	0.228462118755	3
24	418	0.236998118755	1
24	429	0.237398118755	3
24	441	0.245934118755	1
24	452	0.246014118755	3
24	460	0.254550118755	1
24	471	0.254730118755	3
24	479	0.263266118755	1
24	495	0.272651178183	3
24	507	0.281187178183	1
24	518	0.281207178183	3
24	525	0.289743178183	1
24	542	0.305793612864	3
24	553	0.314329612864	1
24	564	0.314789612864	3
24	583	0.323325612864	1
24	594	0.323385612864	3
24	606	0.331921612864	1
24	617	0.332421612864	3
24	633	0.340957612864	1
24	644	0.341077612864	3
24	652	0.349613612864	1
24	663	0.349693612864	3
24	671	0.358229612864	1
24	682	0.358529612864	3
24	690	0.367065612864	1
24	701	0.367685612864	3
24	709	0.376221612864	1
24	726	0.393122578805	3
24	737	0.401658578805	1
24	748	0.401818578805	3
24	759	0.410354578805	1
24	770	0.410754578805	3
24	782	0.419290578805	1
24	793	0.419750578805	3
24	809	0.428286578805	1
24	820	0.428606578805	3
24	828	0.437142578805	1
24	839	0.437482578805	3
24	855	0.446018578805	1
24	866	0.446638578805	3
24	882	0.455174578805	1
24	893	0.455534578805	3
24	909	0.464070578805	1
24	920	0.464130578805	3
24	928	0.472666578805	1
24	939	0.472706578805	3
24	947	0.481242578805	1
24	958	0.481442578805	3
24	966	0.489978578805	1
24	977	0.490238578805	3
24	985	0.498774578805	1
24	1001	0.50556725836	3
24	1009	0.51410325836	1
24	1024	0.516289000323	3
24	1044	0.524825000323	1
24	1055	0.525365000323	3
24	1066	0.533901000323	1
24	1077	0.533941000323	3
24	1089	0.542477000323	1
24	1100	0.543077000323	3
24	1116	0.551613000323	1
24	1127	0.551673000323	3
24	1139	0.560209000323	1
24	1150	0.560569000323	3
24	1162	0.569105000323	1
24	1173	0.569285000323	3
24	1181	0.577821000323	1
24	1192	0.578341000323	3
24	1200	0.586877000323	1
24	1211	0.586897000323	3
24	1223	0.595433000323	1
24	1234	0.595873000323	3
24	1242	0.604409000323	1
24	1253	0.604629000323	3
24	1261	0.613165000323	1
24	1278	0.624977998917	3
24	1285	0.633513998917	1
24	1300	0.638148149838	3
24	1308	0.646684149838	1
24	1323	0.650769517688	3
24	1335	0.659305517688	1
24	1346	0.659505517688	3
24	1361	0.668041517688	1
24	1372	0.668301517688	3
24	1380	0.676837517688	1
24	1391	0.677437517688	3
24	1403	0.685973517688	1
24	1414	0.686013517688	3
24	1422	0.694549517688	1
24	1437	0.69590002125	3
24	1445	0.70443602125	1
24	1461	0.710778125091	3
24	1469	0.719314125091	1
24	1485	0.750139843224	3
24	1492	0.758675843224	1
24	1507	0.767212136136	3
24	1515	0.775748136136	1
24	1530	0.777851226585	3
24	1538	0.786387226585	1
24	1553	0.790255131345	3
24	1561	0.798791131345	1
24	1577	0.826382511228	3
24	1588	0.834918511228	1
24	1599	0.835138511228	3
24	1606	0.843674511228	1
24	1622	0.848145926767	3
24	1630	0.856681926767	1
24	1645	0.86558774947	3
24	1657	0.87412374947	1
24	1668	0.87460374947	3
24	1679	0.88313974947	1
24	1690	0.88341974947	3
24	1698	0.89195574947	1
24	1714	0.901054865556	3
24	1722	0.909590865556	1
24	1737	0.911569202481	3
24	1749	0.920105202481	1
24	1760	0.920125202481	3
24	1771	0.928661202481	1
24	1782	0.928741202481	3
24	1798	0.937277202481	1
24	1809	0.937697202481	3
24	1821	0.946233202481	1
24	1832	0.946373202481	3
24	1840	0.954909202481	1
24	1851	0.955389202481	3
24	1863	0.963925202481	1
24	1874	0.964105202481	3
24	1886	0.972641202481	1
24	1897	0.973081202481	3
24	1905	0.981617202481	1
24	1922	0.994520738194	3
24	1933	1.003056738194	1
24	1944	1.003556738194	3
24	1955	1.012092738194	1
24	1966	1.012532738194	3
24	1978	1.021068738194	1
24	1989	1.021648738194	3
24	1997	1.030184738194	1
24	2014	1.056175146525	3
24	2029	1.064711146525	1
24	2040	1.064831146525	3
24	2051	1.073367146525	1
24	2062	1.073967146525	3
24	2070	1.082503146525	1
24	2081	1.083083146525	3
24	2089	1.091619146525	1
24	2105	1.092564819306	3
24	2112	1.101100819306	1
24	2128	1.10710905325	3
24	2140	1.11564505325	1
24	2151	1.11608505325	3
24	2162	1.12462105325	1
24	2173	1.12520105325	3
24	2181	1.13373705325	1
24	2198	1.145475718997	3
24	2205	1.154011718997	1
24	2221	1.170006624802	3
24	2232	1.178542624802	1
24	2243	1.178962624802	3
24	2254	1.187498624802	1
24	2265	1.187898624802	3
24	2273	1.196434624802	1
24	2289	1.20381568239	3
24	2297	1.21235168239	1
24	2312	1.214038253931	3
24	2324	1.222574253931	1
24	2335	1.223034253931	3
24	2346	1.231570253931	1
24	2357	1.232090253931	3
24	2369	1.240626253931	1
24	2380	1.240686253931	3
24	2388	1.249222253931	1
24	2405	1.259500516525	3
24	2424	1.268036516525	1
24	2435	1.268056516525	3
24	2442	1.276592516525	1
24	2453	1.276832516525	3
24	2465	1.285368516525	1
24	2476	1.285848516525	3
24	2488	1.294384516525	1
24	2503	1.294544516525	3
24	2515	1.303080516525	1
24	2526	1.303120516525	3
24	2534	1.311656516525	1
24	2545	1.311756516525	3
24	2561	1.320292516525	1
24	2572	1.320892516525	3
24	2580	1.329428516525	1
24	2591	1.329588516525	3
24	2599	1.338124516525	1
24	2610	1.338704516525	3
24	2618	1.347240516525	1
24	2634	1.350666872863	3
24	2642	1.359202872863	1
24	2658	1.369256847578	3
24	2665	1.377792847578	1
24	2680	1.380454633475	3
24	2688	1.388990633475	1
24	2703	1.394846284354	3
24	2711	1.403382284354	1
24	2727	1.427502463425	3
24	2734	1.436038463425	1
24	2749	1.441661621368	3
24	2757	1.450197621368	1
24	2772	1.452138164291	3
24	2780	1.460674164291	1
24	2796	1.492233376297	3
24	2807	1.500769376297	1
24	2818	1.500869376297	3
24	2829	1.509405376297	1
25	4	0.022315250545	1000
25	15	0.026135524235	1000
25	50	0.044962277646	1000
25	61	0.052808868453	1000
25	97	0.083987917483	1000
25	107	0.088926853438	1000
25	111	0.089171960499	1000
25	164	0.11062181246	1000
25	189	0.135105583555	1000
25	199	0.142806093627	1000
25	221	0.150233247143	1000
25	257	0.163864514444	1000
25	280	0.176121696936	1000
25	303	0.185371712838	1000
25	325	0.194225640339	1000
25	336	0.201925976763	1000
25	372	0.219785034672	1000
25	383	0.222713616561	1000
25	387	0.222941239391	1000
25	409	0.23447781066	1000
25	431	0.237495113845	1000
25	487	0.2720300941	1000
25	498	0.277376316041	1000
25	534	0.305292528781	1000
25	544	0.306037912267	1000
25	566	0.318743921845	1000
25	570	0.321578402318	1000
25	574	0.323234746579	1000
25	597	0.32778229015	1000
25	619	0.332499640838	1000
25	624	0.339427532568	1000
25	718	0.392881494722	1000
25	728	0.394992457267	1000
25	750	0.405455447511	1000
25	773	0.412990746483	1000
25	796	0.424713115372	1000
25	800	0.42611658029	1000
25	842	0.438933446656	1000
25	846	0.441560013814	1000
25	868	0.447080181307	1000
25	873	0.447244156248	1000
25	896	0.458945379458	1000
25	900	0.460157796762	1000
25	993	0.505146174277	1000
25	1016	0.51628791624	1000
25	1026	0.516530197778	1000
25	1030	0.52051912067	1000
25	1034	0.522055801854	1000
25	1057	0.526269914927	1000
25	1080	0.540272397246	1000
25	1103	0.546691009755	1000
25	1107	0.549623755132	1000
25	1130	0.559617877325	1000
25	1153	0.563318855406	1000
25	1214	0.59314584369	1000
25	1270	0.624936914834	1000
25	1292	0.638147065755	1000
25	1315	0.650648433605	1000
25	1325	0.654748283609	1000
25	1348	0.660834685088	1000
25	1352	0.661078434594	1000
25	1394	0.682267327463	1000
25	1429	0.695858937167	1000
25	1453	0.710457041008	1000
25	1477	0.749758759141	1000
25	1499	0.766691052053	1000
25	1522	0.777450142502	1000
25	1545	0.789674047262	1000
25	1569	0.826301427145	1000
25	1579	0.833457979877	1000
25	1614	0.847884842684	1000
25	1637	0.865366665387	1000
25	1648	0.87142689036	1000
25	1670	0.874875816073	1000
25	1706	0.900493781473	1000
25	1729	0.911148118398	1000
25	1739	0.919497711929	1000
25	1762	0.922642398829	1000
25	1784	0.929259150711	1000
25	1789	0.936988407211	1000
25	1812	0.944609939799	1000
25	1854	0.957561782183	1000
25	1877	0.969110282852	1000
25	1914	0.994399654111	1000
25	1924	0.998650343698	1000
25	1946	1.003894679863	1000
25	1969	1.014143636691	1000
25	2006	1.055814062442	1000
25	2016	1.062589388455	1000
25	2020	1.064416911958	1000
25	2042	1.065644759336	1000
25	2096	1.092343735223	1000
25	2120	1.106947969167	1000
25	2130	1.108206551194	1000
25	2153	1.123237841493	1000
25	2190	1.145314634914	1000
25	2213	1.169625540719	1000
25	2223	1.178144555846	1000
25	2245	1.179730760361	1000
25	2281	1.203754598307	1000
25	2304	1.213857169848	1000
25	2314	1.214262611275	1000
25	2337	1.22860787407	1000
25	2360	1.235146159608	1000
25	2397	1.259299432442	1000
25	2406	1.259500645634	1000
25	2411	1.259642044417	1000
25	2415	1.264997078263	1000
25	2456	1.280708658631	1000
25	2479	1.289542231831	1000
25	2495	1.294509978903	1000
25	2505	1.294734324548	1000
25	2548	1.313675277213	1000
25	2552	1.318759162429	1000
25	2626	1.35034578878	1000
25	2649	1.368715763495	1000
25	2672	1.380373549392	1000
25	2695	1.394785200271	1000
25	2719	1.427441379342	1000
25	2741	1.441080537285	1000
25	2764	1.451777080208	1000
25	2788	1.491832292214	1000
25	2798	1.497926673686	1000
25	2820	1.500945857043	1000
26	6	0.022315250545	1008
26	16	0.026135524235	1008
26	51	0.044962277646	1008
26	62	0.052808868453	1008
26	98	0.083987917483	1008
26	108	0.088926853438	1008
26	112	0.089171960499	1008
26	165	0.11062181246	1008
26	190	0.135105583555	1008
26	200	0.142806093627	1008
26	222	0.150233247143	1008
26	258	0.163864514444	1008
26	281	0.176121696936	1008
26	304	0.185371712838	1008
26	326	0.194225640339	1008
26	337	0.201925976763	1008
26	373	0.219785034672	1008
26	384	0.222713616561	1008
26	388	0.222941239391	1008
26	410	0.23447781066	1008
26	432	0.237495113845	1008
26	488	0.2720300941	1008
26	499	0.277376316041	1008
26	535	0.305292528781	1008
26	545	0.306037912267	1008
26	567	0.318743921845	1008
26	571	0.321578402318	1008
26	575	0.323234746579	1008
26	598	0.32778229015	1008
26	620	0.332499640838	1008
26	625	0.339427532568	1008
26	719	0.392881494722	1008
26	729	0.394992457267	1008
26	751	0.405455447511	1008
26	774	0.412990746483	1008
26	797	0.424713115372	1008
26	801	0.42611658029	1008
26	843	0.438933446656	1008
26	847	0.441560013814	1008
26	869	0.447080181307	1008
26	874	0.447244156248	1008
26	897	0.458945379458	1008
26	901	0.460157796762	1008
26	994	0.505146174277	1008
26	1017	0.51628791624	1008
26	1027	0.516530197778	1008
26	1031	0.52051912067	1008
26	1035	0.522055801854	1008
26	1058	0.526269914927	1008
26	1081	0.540272397246	1008
26	1104	0.546691009755	1008
26	1108	0.549623755132	1008
26	1131	0.559617877325	1008
26	1154	0.563318855406	1008
26	1215	0.59314584369	1008
26	1271	0.624936914834	1008
26	1293	0.638147065755	1008
26	1316	0.650648433605	1008
26	1326	0.654748283609	1008
26	1349	0.660834685088	1008
26	1353	0.661078434594	1008
26	1395	0.682267327463	1008
26	1430	0.695858937167	1008
26	1454	0.710457041008	1008
26	1478	0.749758759141	1008
26	1500	0.766691052053	1008
26	1523	0.777450142502	1008
26	1546	0.789674047262	1008
26	1570	0.826301427145	1008
26	1580	0.833457979877	1008
26	1615	0.847884842684	1008
26	1638	0.865366665387	1008
26	1649	0.87142689036	1008
26	1671	0.874875816073	1008
26	1707	0.900493781473	1008
26	1730	0.911148118398	1008
26	1740	0.919497711929	1008
26	1763	0.922642398829	1008
26	1785	0.929259150711	1008
26	1790	0.936988407211	1008
26	1813	0.944609939799	1008
26	1855	0.957561782183	1008
26	1878	0.969110282852	1008
26	1915	0.994399654111	1008
26	1925	0.998650343698	1008
26	1947	1.003894679863	1008
26	1970	1.014143636691	1008
26	2007	1.055814062442	1008
26	2017	1.062589388455	1008
26	2021	1.064416911958	1008
26	2043	1.065644759336	1008
26	2097	1.092343735223	1008
26	2121	1.106947969167	1008
26	2131	1.108206551194	1008
26	2154	1.123237841493	1008
26	2191	1.145314634914	1008
26	2214	1.169625540719	1008
26	2224	1.178144555846	1008
26	2246	1.179730760361	1008
26	2282	1.203754598307	1008
26	2305	1.213857169848	1008
26	2315	1.214262611275	1008
26	2338	1.22860787407	1008
26	2361	1.235146159608	1008
26	2398	1.259299432442	1008
26	2407	1.259500645634	1008
26	2412	1.259642044417	1008
26	2416	1.264997078263	1008
26	2457	1.280708658631	1008
26	2480	1.289542231831	1008
26	2496	1.294509978903	1008
26	2506	1.294734324548	1008
26	2549	1.313675277213	1008
26	2553	1.318759162429	1008
26	2627	1.35034578878	1008
26	2650	1.368715763495	1008
26	2673	1.380373549392	1008
26	2696	1.394785200271	1008
26	2720	1.427441379342	1008
26	2742	1.441080537285	1008
26	2765	1.451777080208	1008
26	2789	1.491832292214	1008
26	2799	1.497926673686	1008
26	2821	1.500945857043	1008
27	8	0.022315250545	8224
27	18	0.026135524235	8224
27	53	0.044962277646	8224
27	64	0.052808868453	8224
27	100	0.083987917483	8224
27	110	0.088926853438	8224
27	114	0.089171960499	8224
27	167	0.11062181246	8224
27	192	0.135105583555	8224
27	202	0.142806093627	8224
27	224	0.150233247143	8224
27	260	0.163864514444	8224
27	283	0.176121696936	8224
27	306	0.185371712838	8224
27	328	0.194225640339	8224
27	339	0.201925976763	8224
27	375	0.219785034672	8224
27	386	0.222713616561	8224
27	390	0.222941239391	8224
27	412	0.23447781066	8224
27	434	0.237495113845	8224
27	490	0.2720300941	8224
27	501	0.277376316041	8224
27	537	0.305292528781	8224
27	547	0.306037912267	8224
27	569	0.318743921845	8224
27	573	0.321578402318	8224
27	577	0.323234746579	8224
27	600	0.32778229015	8224
27	622	0.332499640838	8224
27	627	0.339427532568	8224
27	721	0.392881494722	8224
27	731	0.394992457267	8224
27	753	0.405455447511	8224
27	776	0.412990746483	8224
27	799	0.424713115372	8224
27	803	0.42611658029	8224
27	845	0.438933446656	8224
27	849	0.441560013814	8224
27	871	0.447080181307	8224
27	876	0.447244156248	8224
27	899	0.458945379458	8224
27	903	0.460157796762	8224
27	996	0.505146174277	8224
27	1019	0.51628791624	8224
27	1029	0.516530197778	8224
27	1033	0.52051912067	8224
27	1037	0.522055801854	8224
27	1060	0.526269914927	8224
27	1083	0.540272397246	8224
27	1106	0.546691009755	8224
27	1110	0.549623755132	8224
27	1133	0.559617877325	8224
27	1156	0.563318855406	8224
27	1217	0.59314584369	8224
27	1273	0.624936914834	8224
27	1295	0.638147065755	8224
27	1318	0.650648433605	8224
27	1328	0.654748283609	8224
27	1351	0.660834685088	8224
27	1355	0.661078434594	8224
27	1397	0.682267327463	8224
27	1432	0.695858937167	8224
27	1456	0.710457041008	8224
27	1480	0.749758759141	8224
27	1502	0.766691052053	8224
27	1525	0.777450142502	8224
27	1548	0.789674047262	8224
27	1572	0.826301427145	8224
27	1582	0.833457979877	8224
27	1617	0.847884842684	8224
27	1640	0.865366665387	8224
27	1651	0.87142689036	8224
27	1673	0.874875816073	8224
27	1709	0.900493781473	8224
27	1732	0.911148118398	8224
27	1742	0.919497711929	8224
27	1765	0.922642398829	8224
27	1787	0.929259150711	8224
27	1792	0.936988407211	8224
27	1815	0.944609939799	8224
27	1857	0.957561782183	8224
27	1880	0.969110282852	8224
27	1917	0.994399654111	8224
27	1927	0.998650343698	8224
27	1949	1.003894679863	8224
27	1972	1.014143636691	8224
27	2009	1.055814062442	8224
27	2019	1.062589388455	8224
27	2023	1.064416911958	8224
27	2045	1.065644759336	8224
27	2099	1.092343735223	8224
27	2123	1.106947969167	8224
27	2133	1.108206551194	8224
27	2156	1.123237841493	8224
27	2193	1.145314634914	8224
27	2216	1.169625540719	8224
27	2226	1.178144555846	8224
27	2248	1.179730760361	8224
27	2284	1.203754598307	8224
27	2307	1.213857169848	8224
27	2317	1.214262611275	8224
27	2340	1.22860787407	8224
27	2363	1.235146159608	8224
27	2400	1.259299432442	8224
27	2409	1.259500645634	8224
27	2414	1.259642044417	8224
27	2418	1.264997078263	8224
27	2459	1.280708658631	8224
27	2482	1.289542231831	8224
27	2498	1.294509978903	8224
27	2508	1.294734324548	8224
27	2551	1.313675277213	8224
27	2555	1.318759162429	8224
27	2629	1.35034578878	8224
27	2652	1.368715763495	8224
27	2675	1.380373549392	8224
27	2698	1.394785200271	8224
27	2722	1.427441379342	8224
27	2744	1.441080537285	8224
27	2767	1.451777080208	8224
27	2791	1.491832292214	8224
27	2801	1.497926673686	8224
27	2823	1.500945857043	8224
28	8	0.022315250545	0
28	19	0.031371250545	0.00523572631
28	53	0.044962277646	0
28	65	0.053978277646	0.001169409193
28	100	0.083987917483	0
28	115	0.092703917483	0.003777064045
28	133	0.101339917483	0.012167956984
28	167	0.11062181246	0
28	192	0.135105583555	0
28	203	0.144121583555	0.001315489928
28	225	0.153237583555	0.003004336412
28	260	0.163864514444	0
28	283	0.176121696936	0
28	306	0.185371712838	0
28	328	0.194225640339	0
28	340	0.202821640339	0.000895663576
28	375	0.219785034672	0
28	391	0.228361034672	0.005647418111
28	413	0.236997034672	0.014055795281
28	436	0.245933034672	0.011455224012
28	455	0.254549034672	0.017053920827
28	490	0.2720300941	0
28	502	0.2811860941	0.003809778059
28	537	0.305292528781	0
28	548	0.314328528781	0.008290616514
28	578	0.323324528781	0.004580606936
28	601	0.331920528781	0.010342126463
28	628	0.340956528781	0.017721782202
28	647	0.349612528781	0.021830238631
28	666	0.358228528781	0.025728887943
28	685	0.367064528781	0.027636996213
28	721	0.392881494722	0
28	732	0.401657494722	0.006665037455
28	754	0.410353494722	0.004898047211
28	777	0.419289494722	0.006298748239
28	804	0.428285494722	0.00357237935
28	823	0.437141494722	0.011024914432
28	850	0.446017494722	0.007084048066
28	877	0.455173494722	0.013613480908
28	904	0.464069494722	0.016989313415
28	923	0.472665494722	0.025421338474
28	942	0.481241494722	0.022296115264
28	961	0.489977494722	0.02981969796
28	996	0.505146174277	0
28	1019	0.51628791624	0
28	1039	0.52482391624	0.008293718462
28	1061	0.53389991624	0.01338079557
28	1084	0.54247591624	0.020420114386
28	1111	0.55161191624	0.025342001313
28	1134	0.56020791624	0.019935518994
28	1157	0.56910391624	0.022412906485
28	1176	0.57781991624	0.028196161108
28	1195	0.58687591624	0.027258038915
28	1218	0.59543191624	0.032113060834
28	1237	0.60440791624	0.01126207255
28	1273	0.624936914834	0
28	1295	0.638147065755	0
28	1318	0.650648433605	0
28	1330	0.659304433605	0.004556149996
28	1356	0.668040433605	0.007205748517
28	1375	0.676836433605	0.015757999011
28	1398	0.685972433605	0.003705106142
28	1432	0.695858937167	0
28	1456	0.710457041008	0
28	1480	0.749758759141	0
28	1502	0.766691052053	0
28	1525	0.777450142502	0
28	1548	0.789674047262	0
28	1572	0.826301427145	0
28	1583	0.834917427145	0.001459447268
28	1617	0.847884842684	0
28	1640	0.865366665387	0
28	1652	0.874122665387	0.002695775027
28	1674	0.883138665387	0.008262849314
28	1709	0.900493781473	0
28	1732	0.911148118398	0
28	1744	0.920104118398	0.000606406469
28	1766	0.928660118398	0.006017719569
28	1793	0.937276118398	0.008016967687
28	1816	0.946232118398	0.009243711187
28	1835	0.954908118398	0.010298178599
28	1858	0.963924118398	0.006362336215
28	1881	0.972640118398	0.003529835546
28	1917	0.994399654111	0
28	1928	1.003055654111	0.004405310413
28	1950	1.012091654111	0.008196974248
28	1973	1.021067654111	0.00692401742
28	2009	1.055814062442	0
28	2024	1.064710062442	0.002120673987
28	2046	1.073366062442	0.008949150484
28	2065	1.082502062442	0.016857303106
28	2099	1.092343735223	0
28	2123	1.106947969167	0
28	2135	1.115643969167	0.007437417973
28	2157	1.124619969167	0.001382127674
28	2193	1.145314634914	0
28	2216	1.169625540719	0
28	2227	1.178541540719	0.000396984873
28	2249	1.187497540719	0.007766780358
28	2284	1.203754598307	0
28	2307	1.213857169848	0
28	2319	1.222573169848	0.008310558573
28	2341	1.231569169848	0.002961295778
28	2364	1.240625169848	0.00547901024
28	2400	1.259299432442	0
28	2419	1.268035432442	0.008534786808
28	2437	1.276591432442	0.016949388025
28	2460	1.285367432442	0.020370354179
28	2483	1.294383432442	0.013674773811
28	2510	1.303079432442	0.013537200611
28	2529	1.311655432442	0.017145453539
28	2556	1.320291432442	0.025557107894
28	2575	1.329427432442	0.015752155229
28	2594	1.338123432442	0.019364270013
28	2629	1.35034578878	0
28	2652	1.368715763495	0
28	2675	1.380373549392	0
28	2698	1.394785200271	0
28	2722	1.427441379342	0
28	2744	1.441080537285	0
28	2767	1.451777080208	0
28	2791	1.491832292214	0
28	2802	1.500768292214	0.002841618528
28	2824	1.509404292214	0.008458435171
29	8	0.022315250545	8224
29	19	0.031371250545	8224
29	53	0.044962277646	8224
29	65	0.053978277646	8224
29	100	0.083987917483	8224
29	115	0.092703917483	8224
29	133	0.101339917483	8224
29	167	0.11062181246	8224
29	192	0.135105583555	8224
29	203	0.144121583555	8224
29	225	0.153237583555	8224
29	260	0.163864514444	8224
29	283	0.176121696936	8224
29	306	0.185371712838	8224
29	328	0.194225640339	8224
29	340	0.202821640339	8224
29	375	0.219785034672	8224
29	391	0.228361034672	8224
29	413	0.236997034672	8224
29	436	0.245933034672	8224
29	455	0.254549034672	8224
29	490	0.2720300941	8224
29	502	0.2811860941	8224
29	537	0.305292528781	8224
29	548	0.314328528781	8224
29	578	0.323324528781	8224
29	601	0.331920528781	8224
29	628	0.340956528781	8224
29	647	0.349612528781	8224
29	666	0.358228528781	8224
29	685	0.367064528781	8224
29	721	0.392881494722	8224
29	732	0.401657494722	8224
29	754	0.410353494722	8224
29	777	0.419289494722	8224
29	804	0.428285494722	8224
29	823	0.437141494722	8224
29	850	0.446017494722	8224
29	877	0.455173494722	8224
29	904	0.464069494722	8224
29	923	0.472665494722	8224
29	942	0.481241494722	8224
29	961	0.489977494722	8224
29	996	0.505146174277	8224
29	1019	0.51628791624	8224
29	1039	0.52482391624	8224
29	1061	0.53389991624	8224
29	1084	0.54247591624	8224
29	1111	0.55161191624	8224
29	1134	0.56020791624	8224
29	1157	0.56910391624	8224
29	1176	0.57781991624	8224
29	1195	0.58687591624	8224
29	1218	0.59543191624	8224
29	1237	0.60440791624	8224
29	1273	0.624936914834	8224
29	1295	0.638147065755	8224
29	1318	0.650648433605	8224
29	1330	0.659304433605	8224
29	1356	0.668040433605	8224
29	1375	0.676836433605	8224
29	1398	0.685972433605	8224
29	1432	0.695858937167	8224
29	1456	0.710457041008	8224
29	1480	0.749758759141	8224
29	1502	0.766691052053	8224
29	1525	0.777450142502	8224
29	1548	0.789674047262	8224
29	1572	0.826301427145	8224
29	1583	0.834917427145	8224
29	1617	0.847884842684	8224
29	1640	0.865366665387	8224
29	1652	0.874122665387	8224
29	1674	0.883138665387	8224
29	1709	0.900493781473	8224
29	1732	0.911148118398	8224
29	1744	0.920104118398	8224
29	1766	0.928660118398	8224
29	1793	0.937276118398	8224
29	1816	0.946232118398	8224
29	1835	0.954908118398	8224
29	1858	0.963924118398	8224
29	1881	0.972640118398	8224
29	1917	0.994399654111	8224
29	1928	1.003055654111	8224
29	1950	1.012091654111	8224
29	1973	1.021067654111	8224
29	2009	1.055814062442	8224
29	2024	1.064710062442	8224
29	2046	1.073366062442	8224
29	2065	1.082502062442	8224
29	2099	1.092343735223	8224
29	2123	1.106947969167	8224
29	2135	1.115643969167	8224
29	2157	1.124619969167	8224
29	2193	1.145314634914	8224
29	2216	1.169625540719	8224
29	2227	1.178541540719	8224
29	2249	1.187497540719	8224
29	2284	1.203754598307	8224
29	2307	1.213857169848	8224
29	2319	1.222573169848	8224
29	2341	1.231569169848	8224
29	2364	1.240625169848	8224
29	2400	1.259299432442	8224
29	2419	1.268035432442	8224
29	2437	1.276591432442	8224
29	2460	1.285367432442	8224
29	2483	1.294383432442	8224
29	2510	1.303079432442	8224
29	2529	1.311655432442	8224
29	2556	1.320291432442	8224
29	2575	1.329427432442	8224
29	2594	1.338123432442	8224
29	2629	1.35034578878	8224
29	2652	1.368715763495	8224
29	2675	1.380373549392	8224
29	2698	1.394785200271	8224
29	2722	1.427441379342	8224
29	2744	1.441080537285	8224
29	2767	1.451777080208	8224
29	2791	1.491832292214	8224
29	2802	1.500768292214	8224
29	2824	1.509404292214	8224
30	8	0.022315250545	0
30	18	0.026135524235	1
30	19	0.031371250545	0
30	53	0.044962277646	0
30	64	0.052808868453	1
30	65	0.053978277646	0
30	100	0.083987917483	0
30	110	0.088926853438	1
30	114	0.089171960499	2
30	115	0.092703917483	1
30	133	0.101339917483	0
30	167	0.11062181246	0
30	192	0.135105583555	0
30	202	0.142806093627	1
30	203	0.144121583555	0
30	224	0.150233247143	1
30	225	0.153237583555	0
30	260	0.163864514444	0
30	283	0.176121696936	0
30	306	0.185371712838	0
30	328	0.194225640339	0
30	339	0.201925976763	1
30	340	0.202821640339	0
30	375	0.219785034672	0
30	386	0.222713616561	1
30	390	0.222941239391	2
30	391	0.228361034672	1
30	412	0.23447781066	2
30	413	0.236997034672	1
30	434	0.237495113845	2
30	436	0.245933034672	1
30	455	0.254549034672	0
30	490	0.2720300941	0
30	501	0.277376316041	1
30	502	0.2811860941	0
30	537	0.305292528781	0
30	547	0.306037912267	1
30	548	0.314328528781	0
30	569	0.318743921845	1
30	573	0.321578402318	2
30	577	0.323234746579	3
30	578	0.323324528781	2
30	600	0.32778229015	3
30	601	0.331920528781	2
30	622	0.332499640838	3
30	627	0.339427532568	4
30	628	0.340956528781	3
30	647	0.349612528781	2
30	666	0.358228528781	1
30	685	0.367064528781	0
30	721	0.392881494722	0
30	731	0.394992457267	1
30	732	0.401657494722	0
30	753	0.405455447511	1
30	754	0.410353494722	0
30	776	0.412990746483	1
30	777	0.419289494722	0
30	799	0.424713115372	1
30	803	0.42611658029	2
30	804	0.428285494722	1
30	823	0.437141494722	0
30	845	0.438933446656	1
30	849	0.441560013814	2
30	850	0.446017494722	1
30	871	0.447080181307	2
30	876	0.447244156248	3
30	877	0.455173494722	2
30	899	0.458945379458	3
30	903	0.460157796762	4
30	904	0.464069494722	3
30	923	0.472665494722	2
30	942	0.481241494722	1
30	961	0.489977494722	0
30	996	0.505146174277	0
30	1019	0.51628791624	0
30	1029	0.516530197778	1
30	1033	0.52051912067	2
30	1037	0.522055801854	3
30	1039	0.52482391624	2
30	1060	0.526269914927	3
30	1061	0.53389991624	2
30	1083	0.540272397246	3
30	1084	0.54247591624	2
30	1106	0.546691009755	3
30	1110	0.549623755132	4
30	1111	0.55161191624	3
30	1133	0.559617877325	4
30	1134	0.56020791624	3
30	1156	0.563318855406	4
30	1157	0.56910391624	3
30	1176	0.57781991624	2
30	1195	0.58687591624	1
30	1217	0.59314584369	2
30	1218	0.59543191624	1
30	1237	0.60440791624	0
30	1273	0.624936914834	0
30	1295	0.638147065755	0
30	1318	0.650648433605	0
30	1328	0.654748283609	1
30	1330	0.659304433605	0
30	1351	0.660834685088	1
30	1355	0.661078434594	2
30	1356	0.668040433605	1
30	1375	0.676836433605	0
30	1397	0.682267327463	1
30	1398	0.685972433605	0
30	1432	0.695858937167	0
30	1456	0.710457041008	0
30	1480	0.749758759141	0
30	1502	0.766691052053	0
30	1525	0.777450142502	0
30	1548	0.789674047262	0
30	1572	0.826301427145	0
30	1582	0.833457979877	1
30	1583	0.834917427145	0
30	1617	0.847884842684	0
30	1640	0.865366665387	0
30	1651	0.87142689036	1
30	1652	0.874122665387	0
30	1673	0.874875816073	1
30	1674	0.883138665387	0
30	1709	0.900493781473	0
30	1732	0.911148118398	0
30	1742	0.919497711929	1
30	1744	0.920104118398	0
30	1765	0.922642398829	1
30	1766	0.928660118398	0
30	1787	0.929259150711	1
30	1792	0.936988407211	2
30	1793	0.937276118398	1
30	1815	0.944609939799	2
30	1816	0.946232118398	1
30	1835	0.954908118398	0
30	1857	0.957561782183	1
30	1858	0.963924118398	0
30	1880	0.969110282852	1
30	1881	0.972640118398	0
30	1917	0.994399654111	0
30	1927	0.998650343698	1
30	1928	1.003055654111	0
30	1949	1.003894679863	1
30	1950	1.012091654111	0
30	1972	1.014143636691	1
30	1973	1.021067654111	0
30	2009	1.055814062442	0
30	2019	1.062589388455	1
30	2023	1.064416911958	2
30	2024	1.064710062442	1
30	2045	1.065644759336	2
30	2046	1.073366062442	1
30	2065	1.082502062442	0
30	2099	1.092343735223	0
30	2123	1.106947969167	0
30	2133	1.108206551194	1
30	2135	1.115643969167	0
30	2156	1.123237841493	1
30	2157	1.124619969167	0
30	2193	1.145314634914	0
30	2216	1.169625540719	0
30	2226	1.178144555846	1
30	2227	1.178541540719	0
30	2248	1.179730760361	1
30	2249	1.187497540719	0
30	2284	1.203754598307	0
30	2307	1.213857169848	0
30	2317	1.214262611275	1
30	2319	1.222573169848	0
30	2340	1.22860787407	1
30	2341	1.231569169848	0
30	2363	1.235146159608	1
30	2364	1.240625169848	0
30	2400	1.259299432442	0
30	2409	1.259500645634	1
30	2414	1.259642044417	2
30	2418	1.264997078263	3
30	2419	1.268035432442	2
30	2437	1.276591432442	1
30	2459	1.280708658631	2
30	2460	1.285367432442	1
30	2482	1.289542231831	2
30	2483	1.294383432442	1
30	2498	1.294509978903	2
30	2508	1.294734324548	3
30	2510	1.303079432442	2
30	2529	1.311655432442	1
30	2551	1.313675277213	2
30	2555	1.318759162429	3
30	2556	1.320291432442	2
30	2575	1.329427432442	1
30	2594	1.338123432442	0
30	2629	1.35034578878	0
30	2652	1.368715763495	0
30	2675	1.380373549392	0
30	2698	1.394785200271	0
30	2722	1.427441379342	0
30	2744	1.441080537285	0
30	2767	1.451777080208	0
30	2791	1.491832292214	0
30	2801	1.497926673686	1
30	2802	1.500768292214	0
30	2823	1.500945857043	1
30	2824	1.509404292214	0
31	8	0.022315250545	0
31	18	0.026135524235	8224
31	19	0.031371250545	0
31	53	0.044962277646	0
31	64	0.052808868453	8224
31	65	0.053978277646	0
31	100	0.083987917483	0
31	110	0.088926853438	8224
31	114	0.089171960499	16448
31	115	0.092703917483	8224
31	133	0.101339917483	0
31	167	0.11062181246	0
31	192	0.135105583555	0
31	202	0.142806093627	8224
31	203	0.144121583555	0
31	224	0.150233247143	8224
31	225	0.153237583555	0
31	260	0.163864514444	0
31	283	0.176121696936	0
31	306	0.185371712838	0
31	328	0.194225640339	0
31	339	0.201925976763	8224
31	340	0.202821640339	0
31	375	0.219785034672	0
31	386	0.222713616561	8224
31	390	0.222941239391	16448
31	391	0.228361034672	8224
31	412	0.23447781066	16448
31	413	0.236997034672	8224
31	434	0.237495113845	16448
31	436	0.245933034672	8224
31	455	0.254549034672	0
31	490	0.2720300941	0
31	501	0.277376316041	8224
31	502	0.2811860941	0
31	537	0.305292528781	0
31	547	0.306037912267	8224
31	548	0.314328528781	0
31	569	0.318743921845	8224
31	573	0.321578402318	16448
31	577	0.323234746579	24672
31	578	0.323324528781	16448
31	600	0.32778229015	24672
31	601	0.331920528781	16448
31	622	0.332499640838	24672
31	627	0.339427532568	32896
31	628	0.340956528781	24672
31	647	0.349612528781	16448
31	666	0.358228528781	8224
31	685	0.367064528781	0
31	721	0.392881494722	0
31	731	0.394992457267	8224
31	732	0.401657494722	0
31	753	0.405455447511	8224
31	754	0.410353494722	0
31	776	0.412990746483	8224
31	777	0.419289494722	0
31	799	0.424713115372	8224
31	803	0.42611658029	16448
31	804	0.428285494722	8224
31	823	0.437141494722	0
31	845	0.438933446656	8224
31	849	0.441560013814	16448
31	850	0.446017494722	8224
31	871	0.447080181307	16448
31	876	0.447244156248	24672
31	877	0.455173494722	16448
31	899	0.458945379458	24672
31	903	0.460157796762	32896
31	904	0.464069494722	24672
31	923	0.472665494722	16448
31	942	0.481241494722	8224
31	961	0.489977494722	0
31	996	0.505146174277	0
[...]
39	1704	0.891955999643	73
39	1728	0.909591115729	74
39	1755	0.920105452654	75
39	1777	0.928661452654	76
39	1804	0.937277452654	77
39	1827	0.946233452654	78
39	1846	0.954909452654	79
39	1869	0.963925452654	80
39	1892	0.972641452654	81
39	1911	0.981617452654	82
39	1939	1.003056988367	83
39	1961	1.012092988367	84
39	1984	1.021068988367	85
39	2003	1.030184988367	86
39	2035	1.064711396698	87
39	2057	1.073367396698	88
39	2076	1.082503396698	89
39	2095	1.091619396698	90
39	2118	1.101101069479	91
39	2146	1.115645303423	92
39	2168	1.124621303423	93
39	2187	1.133737303423	94
39	2211	1.15401196917	95
39	2238	1.178542874975	96
39	2260	1.187498874975	97
39	2279	1.196434874975	98
39	2303	1.212351932563	99
39	2330	1.222574504104	100
39	2352	1.231570504104	101
39	2375	1.240626504104	102
39	2394	1.249222504104	103
39	2430	1.268036766698	104
39	2448	1.276592766698	105
39	2471	1.285368766698	106
39	2494	1.294384766698	107
39	2521	1.303080766698	108
39	2540	1.311656766698	109
39	2567	1.320292766698	110
39	2586	1.329428766698	111
39	2605	1.338124766698	112
39	2624	1.347240766698	113
39	2648	1.359203123036	114
39	2671	1.377793097751	115
39	2694	1.388990883648	116
39	2717	1.403382534527	117
39	2740	1.436038713598	118
39	2763	1.450197871541	119
39	2786	1.460674414464	120
39	2813	1.50076962647	121
39	2835	1.50940562647	122
40	133	0.1	493440
40	340	0.2	740160
40	537	0.3	657920
40	732	0.4	740160
40	996	0.5	904640
40	1237	0.6	904640
40	1456	0.7	740160
40	1572	0.8	411200
40	1709	0.9	493440
40	1928	1	822400
40	2123	1.1	657920
40	2284	1.2	575680
40	2510	1.3	822400
40	2722	1.4	740160
40	2802	1.5	328960
41	144	0.1	400000
41	351	0.2	720000
41	559	0.3	720000
41	743	0.4	640000
41	1015	0.5	960000
41	1248	0.6	800000
41	1451	0.7	720000
41	1594	0.8	480000
41	1728	0.9	480000
41	1939	1	720000
41	2118	1.1	640000
41	2303	1.2	640000
41	2521	1.3	720000
41	2717	1.4	720000
41	2813	1.5	320000
42	167	0.1	575680
42	339	0.2	657920
42	537	0.3	657920
42	753	0.4	822400
42	996	0.5	822400
42	1273	0.6	986880
42	1456	0.7	657920
42	1572	0.8	411200
42	1709	0.9	493440
42	1949	1	904640
42	2123	1.1	575680
42	2284	1.2	575680
42	2551	1.3	1069120
42	2722	1.4	493440
42	2823	1.5	411200
3	2853	1.51818162647	124
15	2843	1.518180292214	2
15	2861	1.535654764146	3
20	2843	1.518180292214	1
20	2861	1.535654764146	0
21	2841	1.50964562647	3
21	2850	1.51818162647	1
21	2866	1.535656098402	3
22	2839	1.509644964534	3
22	2846	1.518180964534	1
22	2864	1.535655436466	3
23	2838	1.509644826177	3
23	2844	1.518180826177	1
23	2863	1.535655298109	3
24	2840	1.509645376297	3
24	2848	1.518181376297	1
24	2865	1.535655848229	3
25	2857	1.535614764146	1000
26	2858	1.535614764146	1008
27	2860	1.535614764146	8224
28	2860	1.535614764146	0
29	2860	1.535614764146	8224
30	2860	1.535614764146	0
31	2860	1.535614764146	0
32	2843	1.518180292214	1
32	2843	1.518180292214	0
32	2861	1.535654764146	1
32	2862	1.535654764146	2
33	2845	1.518180826177	1055
34	2847	1.518180964534	1055
35	2849	1.518181376297	1055
36	2853	1.51818162647	1008
37	2854	1.51818162647	1000
38	2854	1.51818162647	0.017235769427
39	2854	1.51818162647	123
3	2881	1.544192098402	125
3	2911	1.553148098402	126
3	2934	1.561804098402	127
3	2957	1.570900098402	128
3	2976	1.579776098402	129
3	2999	1.588492098402	130
3	3018	1.597448098402	131
3	3047	1.606164098402	132
3	3064	1.614700098402	133
3	3087	1.623796098402	134
3	3106	1.632512098402	135
3	3134	1.645779023299	136
3	3152	1.654515023299	137
3	3180	1.677179933614	138
3	3198	1.685775933614	139
3	3226	1.703033099687	140
3	3254	1.712109099687	141
3	3271	1.720645099687	142
15	2871	1.544190764146	2
15	2883	1.544610764146	3
15	2901	1.553146764146	2
15	2913	1.553266764146	3
15	2924	1.561802764146	2
15	2936	1.562362764146	3
15	2947	1.570898764146	2
15	2959	1.571238764146	3
15	2966	1.579774764146	2
15	2978	1.579954764146	3
15	2989	1.588490764146	2
15	3001	1.588910764146	3
15	3008	1.597446764146	2
15	3020	1.597626764146	3
15	3031	1.606162764146	2
15	3032	1.606162764146	3
15	3054	1.614698764146	2
15	3066	1.615258764146	3
15	3077	1.623794764146	2
15	3089	1.623974764146	3
15	3096	1.632510764146	2
15	3113	1.637241689043	3
15	3124	1.645777689043	2
15	3136	1.645977689043	3
15	3142	1.654513689043	2
15	3164	1.668642599358	3
15	3170	1.677178599358	2
15	3182	1.677238599358	3
15	3188	1.685774599358	2
15	3205	1.694495765431	3
15	3216	1.703031765431	2
15	3228	1.703571765431	3
15	3238	1.712107765431	2
15	3239	1.712107765431	3
15	3261	1.720643765431	2
15	3273	1.720783765431	3
15	3284	1.729319765431	2
20	2871	1.544190764146	1
20	2883	1.544610764146	0
20	2901	1.553146764146	1
20	2913	1.553266764146	0
20	2924	1.561802764146	1
20	2936	1.562362764146	0
20	2947	1.570898764146	1
20	2959	1.571238764146	0
20	2966	1.579774764146	1
20	2978	1.579954764146	0
20	2989	1.588490764146	1
20	3001	1.588910764146	0
20	3008	1.597446764146	1
20	3020	1.597626764146	0
20	3031	1.606162764146	1
20	3032	1.606162764146	0
20	3054	1.614698764146	1
20	3066	1.615258764146	0
20	3077	1.623794764146	1
20	3089	1.623974764146	0
20	3096	1.632510764146	1
20	3113	1.637241689043	0
20	3124	1.645777689043	1
20	3136	1.645977689043	0
20	3142	1.654513689043	1
20	3164	1.668642599358	0
20	3170	1.677178599358	1
20	3182	1.677238599358	0
20	3188	1.685774599358	1
20	3205	1.694495765431	0
20	3216	1.703031765431	1
20	3228	1.703571765431	0
20	3238	1.712107765431	1
20	3239	1.712107765431	0
20	3261	1.720643765431	1
20	3273	1.720783765431	0
20	3284	1.729319765431	1
21	2878	1.544192098402	1
21	2888	1.544612098402	3
21	2908	1.553148098402	1
21	2918	1.553268098402	3
21	2931	1.561804098402	1
21	2941	1.562364098402	3
21	2954	1.570900098402	1
21	2964	1.571240098402	3
21	2973	1.579776098402	1
21	2983	1.579956098402	3
21	2996	1.588492098402	1
21	3006	1.588912098402	3
21	3015	1.597448098402	1
21	3025	1.597628098402	3
21	3043	1.606164098402	2
21	3044	1.606164098402	3
21	3061	1.614700098402	1
21	3071	1.615260098402	3
21	3084	1.623796098402	1
21	3094	1.623976098402	3
21	3103	1.632512098402	1
21	3118	1.637243023299	3
21	3131	1.645779023299	1
21	3141	1.645979023299	3
21	3149	1.654515023299	1
21	3169	1.668643933614	3
21	3177	1.677179933614	1
21	3187	1.677239933614	3
21	3195	1.685775933614	1
21	3210	1.694497099687	3
21	3223	1.703033099687	1
21	3233	1.703573099687	3
21	3250	1.712109099687	2
21	3251	1.712109099687	3
21	3268	1.720645099687	1
21	3278	1.720785099687	3
22	2874	1.544191436466	1
22	2886	1.544611436466	3
22	2904	1.553147436466	1
22	2916	1.553267436466	3
22	2927	1.561803436466	1
22	2939	1.562363436466	3
22	2950	1.570899436466	1
22	2962	1.571239436466	3
22	2969	1.579775436466	1
22	2981	1.579955436466	3
22	2992	1.588491436466	1
22	3004	1.588911436466	3
22	3011	1.597447436466	1
22	3023	1.597627436466	3
22	3037	1.606163436466	2
22	3038	1.606163436466	3
22	3057	1.614699436466	1
22	3069	1.615259436466	3
22	3080	1.623795436466	1
22	3092	1.623975436466	3
22	3099	1.632511436466	1
22	3116	1.637242361363	3
22	3127	1.645778361363	1
22	3139	1.645978361363	3
22	3145	1.654514361363	1
22	3167	1.668643271678	3
22	3173	1.677179271678	1
22	3185	1.677239271678	3
22	3191	1.685775271678	1
22	3208	1.694496437751	3
22	3219	1.703032437751	1
22	3231	1.703572437751	3
22	3244	1.712108437751	2
22	3245	1.712108437751	3
22	3264	1.720644437751	1
22	3276	1.720784437751	3
23	2872	1.544191298109	1
23	2885	1.544611298109	3
23	2902	1.553147298109	1
23	2915	1.553267298109	3
23	2925	1.561803298109	1
23	2938	1.562363298109	3
23	2948	1.570899298109	1
23	2961	1.571239298109	3
23	2967	1.579775298109	1
23	2980	1.579955298109	3
23	2990	1.588491298109	1
23	3003	1.588911298109	3
23	3009	1.597447298109	1
23	3022	1.597627298109	3
23	3034	1.606163298109	2
23	3035	1.606163298109	3
23	3055	1.614699298109	1
23	3068	1.615259298109	3
23	3078	1.623795298109	1
23	3091	1.623975298109	3
23	3097	1.632511298109	1
23	3115	1.637242223006	3
23	3125	1.645778223006	1
23	3138	1.645978223006	3
23	3143	1.654514223006	1
23	3166	1.668643133321	3
23	3171	1.677179133321	1
23	3184	1.677239133321	3
23	3189	1.685775133321	1
23	3207	1.694496299394	3
23	3217	1.703032299394	1
23	3230	1.703572299394	3
23	3241	1.712108299394	2
23	3242	1.712108299394	3
23	3262	1.720644299394	1
23	3275	1.720784299394	3
24	2876	1.544191848229	1
24	2887	1.544611848229	3
24	2906	1.553147848229	1
24	2917	1.553267848229	3
24	2929	1.561803848229	1
24	2940	1.562363848229	3
24	2952	1.570899848229	1
24	2963	1.571239848229	3
24	2971	1.579775848229	1
24	2982	1.579955848229	3
24	2994	1.588491848229	1
24	3005	1.588911848229	3
24	3013	1.597447848229	1
24	3024	1.597627848229	3
24	3040	1.606163848229	2
24	3041	1.606163848229	3
24	3059	1.614699848229	1
24	3070	1.615259848229	3
24	3082	1.623795848229	1
24	3093	1.623975848229	3
24	3101	1.632511848229	1
24	3117	1.637242773126	3
24	3129	1.645778773126	1
24	3140	1.645978773126	3
24	3147	1.654514773126	1
24	3168	1.668643683441	3
24	3175	1.677179683441	1
24	3186	1.677239683441	3
24	3193	1.685775683441	1
24	3209	1.694496849514	3
24	3221	1.703032849514	1
24	3232	1.703572849514	3
24	3247	1.712108849514	2
24	3248	1.712108849514	3
24	3266	1.720644849514	1
24	3277	1.720784849514	3
25	2867	1.542834911984	1000
25	2889	1.545931065151	1000
25	2893	1.547000916631	1000
25	2897	1.547697784976	1000
25	2920	1.55572714966	1000
25	2943	1.570029446904	1000
25	2985	1.581566721763	1000
25	3027	1.604707043406	1000
25	3050	1.612521812189	1000
25	3073	1.621751249802	1000
25	3109	1.636801689043	1000
25	3119	1.639735581308	1000
25	3156	1.668162599358	1000
25	3160	1.668413005981	1000
25	3201	1.694015765431	1000
25	3212	1.699819426081	1000
25	3234	1.704530302419	1000
25	3257	1.716428353934	1000
25	3279	1.72091351346	1000
26	2868	1.542834911984	1008
26	2890	1.545931065151	1008
26	2894	1.547000916631	1008
26	2898	1.547697784976	1008
26	2921	1.55572714966	1008
26	2944	1.570029446904	1008
26	2986	1.581566721763	1008
26	3028	1.604707043406	1008
26	3051	1.612521812189	1008
26	3074	1.621751249802	1008
26	3110	1.636801689043	1008
26	3120	1.639735581308	1008
26	3157	1.668162599358	1008
26	3161	1.668413005981	1008
26	3202	1.694015765431	1008
26	3213	1.699819426081	1008
26	3235	1.704530302419	1008
26	3258	1.716428353934	1008
26	3280	1.72091351346	1008
27	2870	1.542834911984	8224
27	2892	1.545931065151	8224
27	2896	1.547000916631	8224
27	2900	1.547697784976	8224
27	2923	1.55572714966	8224
27	2946	1.570029446904	8224
27	2988	1.581566721763	8224
27	3030	1.604707043406	8224
27	3053	1.612521812189	8224
27	3076	1.621751249802	8224
27	3112	1.636801689043	8224
27	3122	1.639735581308	8224
27	3159	1.668162599358	8224
27	3163	1.668413005981	8224
27	3204	1.694015765431	8224
27	3215	1.699819426081	8224
27	3237	1.704530302419	8224
27	3260	1.716428353934	8224
27	3282	1.72091351346	8224
28	2871	1.544190764146	0.001355852162
28	2901	1.553146764146	0.007215698995
28	2924	1.561802764146	0.014801847515
28	2947	1.570898764146	0.02320097917
28	2966	1.579774764146	0.024047614486
28	2989	1.588490764146	0.018461317242
28	3008	1.597446764146	0.015880042383
28	3031	1.606162764146	0.00145572074
28	3054	1.614698764146	0.002176951957
28	3077	1.623794764146	0.002043514344
28	3112	1.636801689043	0
28	3124	1.645777689043	0.006042107735
28	3159	1.668162599358	0
28	3170	1.677178599358	0.008765593377
28	3204	1.694015765431	0
28	3216	1.703031765431	0.00321233935
28	3238	1.712107765431	0.007577463012
28	3261	1.720643765431	0.004215411497
28	3284	1.729319765431	0.008406251971
29	2871	1.544190764146	8224
29	2901	1.553146764146	8224
29	2924	1.561802764146	8224
29	2947	1.570898764146	8224
29	2966	1.579774764146	8224
29	2989	1.588490764146	8224
29	3008	1.597446764146	8224
29	3031	1.606162764146	8224
29	3054	1.614698764146	8224
29	3077	1.623794764146	8224
29	3112	1.636801689043	8224
29	3124	1.645777689043	8224
29	3159	1.668162599358	8224
29	3170	1.677178599358	8224
29	3204	1.694015765431	8224
29	3216	1.703031765431	8224
29	3238	1.712107765431	8224
29	3261	1.720643765431	8224
29	3284	1.729319765431	8224
30	2870	1.542834911984	1
30	2871	1.544190764146	0
30	2892	1.545931065151	1
30	2896	1.547000916631	2
30	2900	1.547697784976	3
30	2901	1.553146764146	2
30	2923	1.55572714966	3
30	2924	1.561802764146	2
30	2946	1.570029446904	3
30	2947	1.570898764146	2
30	2966	1.579774764146	1
30	2988	1.581566721763	2
30	2989	1.588490764146	1
30	3008	1.597446764146	0
30	3030	1.604707043406	1
30	3031	1.606162764146	0
30	3053	1.612521812189	1
30	3054	1.614698764146	0
30	3076	1.621751249802	1
30	3077	1.623794764146	0
30	3112	1.636801689043	0
30	3122	1.639735581308	1
30	3124	1.645777689043	0
30	3159	1.668162599358	0
30	3163	1.668413005981	1
30	3170	1.677178599358	0
30	3204	1.694015765431	0
30	3215	1.699819426081	1
30	3216	1.703031765431	0
30	3237	1.704530302419	1
30	3238	1.712107765431	0
30	3260	1.716428353934	1
30	3261	1.720643765431	0
30	3282	1.72091351346	1
30	3284	1.729319765431	0
31	2870	1.542834911984	8224
31	2871	1.544190764146	0
31	2892	1.545931065151	8224
31	2896	1.547000916631	16448
31	2900	1.547697784976	24672
31	2901	1.553146764146	16448
31	2923	1.55572714966	24672
31	2924	1.561802764146	16448
31	2946	1.570029446904	24672
31	2947	1.570898764146	16448
31	2966	1.579774764146	8224
31	2988	1.581566721763	16448
31	2989	1.588490764146	8224
31	3008	1.597446764146	0
31	3030	1.604707043406	8224
31	3031	1.606162764146	0
31	3053	1.612521812189	8224
31	3054	1.614698764146	0
31	3076	1.621751249802	8224
31	3077	1.623794764146	0
31	3112	1.636801689043	0
31	3122	1.639735581308	8224
31	3124	1.645777689043	0
31	3159	1.668162599358	0
31	3163	1.668413005981	8224
31	3170	1.677178599358	0
31	3204	1.694015765431	0
31	3215	1.699819426081	8224
31	3216	1.703031765431	0
31	3237	1.704530302419	8224
31	3238	1.712107765431	0
31	3260	1.716428353934	8224
31	3261	1.720643765431	0
31	3282	1.72091351346	8224
31	3284	1.729319765431	0
32	2871	1.544190764146	1
32	2871	1.544190764146	0
32	2883	1.544610764146	1
32	2884	1.544610764146	2
32	2901	1.553146764146	1
32	2901	1.553146764146	0
32	2913	1.553266764146	1
32	2914	1.553266764146	2
32	2924	1.561802764146	1
32	2924	1.561802764146	0
32	2936	1.562362764146	1
32	2937	1.562362764146	2
32	2947	1.570898764146	1
32	2947	1.570898764146	0
32	2959	1.571238764146	1
32	2960	1.571238764146	2
32	2966	1.579774764146	1
32	2966	1.579774764146	0
32	2978	1.579954764146	1
32	2979	1.579954764146	2
32	2989	1.588490764146	1
32	2989	1.588490764146	0
32	3001	1.588910764146	1
32	3002	1.588910764146	2
32	3008	1.597446764146	1
32	3008	1.597446764146	0
32	3020	1.597626764146	1
32	3021	1.597626764146	2
32	3031	1.606162764146	1
32	3031	1.606162764146	0
32	3032	1.606162764146	1
32	3033	1.606162764146	2
32	3054	1.614698764146	1
32	3054	1.614698764146	0
32	3066	1.615258764146	1
32	3067	1.615258764146	2
32	3077	1.623794764146	1
32	3077	1.623794764146	0
32	3089	1.623974764146	1
32	3090	1.623974764146	2
32	3096	1.632510764146	1
32	3096	1.632510764146	0
32	3113	1.637241689043	1
32	3114	1.637241689043	2
32	3124	1.645777689043	1
32	3124	1.645777689043	0
32	3136	1.645977689043	1
32	3137	1.645977689043	2
32	3142	1.654513689043	1
32	3142	1.654513689043	0
32	3164	1.668642599358	1
32	3165	1.668642599358	2
32	3170	1.677178599358	1
32	3170	1.677178599358	0
32	3182	1.677238599358	1
32	3183	1.677238599358	2
32	3188	1.685774599358	1
32	3188	1.685774599358	0
32	3205	1.694495765431	1
32	3206	1.694495765431	2
32	3216	1.703031765431	1
32	3216	1.703031765431	0
32	3228	1.703571765431	1
32	3229	1.703571765431	2
32	3238	1.712107765431	1
32	3238	1.712107765431	0
32	3239	1.712107765431	1
32	3240	1.712107765431	2
32	3261	1.720643765431	1
32	3261	1.720643765431	0
32	3273	1.720783765431	1
32	3274	1.720783765431	2
32	3284	1.729319765431	1
32	3284	1.729319765431	0
33	2873	1.544191298109	1055
33	2903	1.553147298109	1055
33	2926	1.561803298109	1055
33	2949	1.570899298109	1055
33	2968	1.579775298109	1055
33	2991	1.588491298109	1055
33	3010	1.597447298109	1055
33	3036	1.606163298109	1055
33	3056	1.614699298109	1055
33	3079	1.623795298109	1055
33	3098	1.632511298109	1055
33	3126	1.645778223006	1055
33	3144	1.654514223006	1055
33	3172	1.677179133321	1055
33	3190	1.685775133321	1055
33	3218	1.703032299394	1055
33	3243	1.712108299394	1055
33	3263	1.720644299394	1055
34	2875	1.544191436466	1055
34	2905	1.553147436466	1055
34	2928	1.561803436466	1055
34	2951	1.570899436466	1055
34	2970	1.579775436466	1055
34	2993	1.588491436466	1055
34	3012	1.597447436466	1055
34	3039	1.606163436466	1055
34	3058	1.614699436466	1055
34	3081	1.623795436466	1055
34	3100	1.632511436466	1055
34	3128	1.645778361363	1055
34	3146	1.654514361363	1055
34	3174	1.677179271678	1055
34	3192	1.685775271678	1055
34	3220	1.703032437751	1055
34	3246	1.712108437751	1055
34	3265	1.720644437751	1055
35	2877	1.544191848229	1055
35	2907	1.553147848229	1055
35	2930	1.561803848229	1055
35	2953	1.570899848229	1055
35	2972	1.579775848229	1055
35	2995	1.588491848229	1055
35	3014	1.597447848229	1055
35	3042	1.606163848229	1055
35	3060	1.614699848229	1055
35	3083	1.623795848229	1055
35	3102	1.632511848229	1055
35	3130	1.645778773126	1055
35	3148	1.654514773126	1055
35	3176	1.677179683441	1055
35	3194	1.685775683441	1055
35	3222	1.703032849514	1055
35	3249	1.712108849514	1055
35	3267	1.720644849514	1055
36	2881	1.544192098402	1008
36	2911	1.553148098402	1008
36	2934	1.561804098402	1008
36	2957	1.570900098402	1008
36	2976	1.579776098402	1008
36	2999	1.588492098402	1008
36	3018	1.597448098402	1008
36	3047	1.606164098402	1008
36	3064	1.614700098402	1008
36	3087	1.623796098402	1008
36	3106	1.632512098402	1008
36	3134	1.645779023299	1008
36	3152	1.654515023299	1008
36	3180	1.677179933614	1008
36	3198	1.685775933614	1008
36	3226	1.703033099687	1008
36	3254	1.712109099687	1008
36	3271	1.720645099687	1008
37	2882	1.544192098402	1000
37	2912	1.553148098402	1000
37	2935	1.561804098402	1000
37	2958	1.570900098402	1000
37	2977	1.579776098402	1000
37	3000	1.588492098402	1000
37	3019	1.597448098402	1000
37	3048	1.606164098402	1000
37	3065	1.614700098402	1000
37	3088	1.623796098402	1000
37	3107	1.632512098402	1000
37	3135	1.645779023299	1000
37	3153	1.654515023299	1000
37	3181	1.677179933614	1000
37	3199	1.685775933614	1000
37	3227	1.703033099687	1000
37	3255	1.712109099687	1000
37	3272	1.720645099687	1000
38	2882	1.544192098402	0.008577334256
38	2912	1.553148098402	0.010313186418
38	2935	1.561804098402	0.015873033251
38	2958	1.570900098402	0.023899181771
38	2977	1.579776098402	0.032078313426
38	3000	1.588492098402	0.032764948742
38	3019	1.597448098402	0.027418651498
38	3048	1.606164098402	0.024597376639
38	3065	1.614700098402	0.009993054996
38	3088	1.623796098402	0.011274286213
38	3107	1.632512098402	0.0107608486
38	3135	1.645779023299	0.008977334256
38	3153	1.654515023299	0.014779441991
38	3181	1.677179933614	0.009017334256
38	3199	1.685775933614	0.017362927633
38	3227	1.703033099687	0.009017334256
38	3255	1.712109099687	0.012289673606
38	3272	1.720645099687	0.016114797268
39	2882	1.544192098402	124
39	2912	1.553148098402	125
39	2935	1.561804098402	126
39	2958	1.570900098402	127
39	2977	1.579776098402	128
39	3000	1.588492098402	129
39	3019	1.597448098402	130
39	3048	1.606164098402	131
39	3065	1.614700098402	132
39	3088	1.623796098402	133
39	3107	1.632512098402	134
39	3135	1.645779023299	135
39	3153	1.654515023299	136
39	3181	1.677179933614	137
39	3199	1.685775933614	138
39	3227	1.703033099687	139
39	3255	1.712109099687	140
39	3272	1.720645099687	141
40	3031	1.6	822400
40	3216	1.7	657920
41	3048	1.6	800000
41	3227	1.7	640000
42	3030	1.6	740160
42	3237	1.7	740160

