version 3
run Wireless04-0-20240321-00:39:07-2640
attr configname Wireless04
attr datetime 20240321-00:39:07
attr datetimef 20240321-003907
attr experiment Wireless04
attr inifile omnetpp.ini
attr iterationvars ""
attr iterationvarsd ""
attr iterationvarsf ""
attr measurement ""
attr network WirelessB
attr processid 2640
attr repetition 0
attr replication #0
attr resultdir results
attr runnumber 0
attr seedset 0
config image-path ../../inet4.5/images
config description "Setting up static routing"
config extends Wireless03
config *.host*.forwarding true
config *.configurator.config "xml(\"<config><interface hosts='**' address='10.0.0.x' netmask='255.255.255.0'/><autoroute metric='errorRate'/></config>\")"
config *.configurator.optimizeRoutes false
config *.host*.ipv4.routingTable.netmaskRoutes "\"\""
config *.visualizer.physicalLinkVisualizer.displayLinks true
config *.visualizer.dataLinkVisualizer.displayLinks true
config *.visualizer.networkRouteVisualizer.displayRoutes true
config *.visualizer.*LinkVisualizer.lineShift 0
config *.visualizer.networkRouteVisualizer.lineShift 0
config *.visualizer.networkRouteVisualizer.packetFilter "\"UDPData*\""
config description "Adding more nodes and decreasing the communication range"
config extends Wireless02
config network WirelessB
config *.host*.wlan[0].radio.transmitter.analogModel.communicationRange 250m
config *.hostR1.wlan[0].radio.displayCommunicationRange true
config description "Setting up some animations and configurations for our wireless net-work, it ext-ends the first net"
config extends Wireless01
config *.hostA.wlan[0].radio.displayCommunicationRange true
config *.visualizer.sceneVisualizer.descriptionFigure "\"title\""
config *.visualizer.mediumVisualizer.displaySignals true
config *.visualizer.physicalLinkVisualizer.displayLinks true
config *.visualizer.physicalLinkVisualizer.packetFilter "\"UDPData*\""
config description "Two hosts communicating wirelessly"
config network WirelessA
config sim-time-limit 20s
config *.radioMedium.signalAnalogRepresentation "\"unitDisk\""
config *.host*.ipv4.arp.typename GlobalArp
config *.hostA.numApps 1
config *.hostA.app[0].typename UdpBasicApp
config *.hostA.app[0].destAddresses "\"hostB\""
config *.hostA.app[0].destPort 5000
config *.hostA.app[0].messageLength 1000B
config *.hostA.app[0].sendInterval exponential(12ms)
config *.hostA.app[0].packetName "\"UDPData\""
config *.hostB.numApps 1
config *.hostB.app[0].typename UdpSink
config *.hostB.app[0].localPort 5000
config *.host*.wlan[0].typename AckingWirelessInterface
config *.host*.wlan[0].mac.useAck false
config *.host*.wlan[0].mac.fullDuplex false
config *.host*.wlan[0].radio.signalAnalogRepresentation "\"unitDisk\""
config *.host*.wlan[0].radio.transmitter.analogModel.communicationRange 500m
config *.host*.wlan[0].radio.receiver.ignoreInterference true
config *.host*.wlan[0].mac.headerLength 23B
config *.host*.**.bitrate 1Mbps

vector 0 WirelessB.hostA.udp passedUpPk:vector(count) ETV
attr interpolationmode none
attr recordingmode vector(count)
attr source packetSentToUpper
attr title "packets passed up, count"
vector 1 WirelessB.hostA.udp droppedPkWrongPort:vector(count) ETV
attr interpolationmode none
attr recordingmode vector(count)
attr source packetDropReasonIsNoPortFound(packetDropped)
attr title "packets dropped (wrong port), count"
vector 2 WirelessB.hostA.udp droppedPkBadChecksum:vector(count) ETV
attr interpolationmode none
attr recordingmode vector(count)
attr source packetDropReasonIsIncorrectlyReceived(packetDropped)
attr title "packets dropped (checksum error), count"
vector 3 WirelessB.hostB.udp passedUpPk:vector(count) ETV
attr interpolationmode none
attr recordingmode vector(count)
attr source packetSentToUpper
attr title "packets passed up, count"
vector 4 WirelessB.hostB.udp droppedPkWrongPort:vector(count) ETV
attr interpolationmode none
attr recordingmode vector(count)
attr source packetDropReasonIsNoPortFound(packetDropped)
attr title "packets dropped (wrong port), count"
vector 5 WirelessB.hostB.udp droppedPkBadChecksum:vector(count) ETV
attr interpolationmode none
attr recordingmode vector(count)
attr source packetDropReasonIsIncorrectlyReceived(packetDropped)
attr title "packets dropped (checksum error), count"
vector 6 WirelessB.hostR1.udp passedUpPk:vector(count) ETV
attr interpolationmode none
attr recordingmode vector(count)
attr source packetSentToUpper
attr title "packets passed up, count"
vector 7 WirelessB.hostR1.udp droppedPkWrongPort:vector(count) ETV
attr interpolationmode none
attr recordingmode vector(count)
attr source packetDropReasonIsNoPortFound(packetDropped)
attr title "packets dropped (wrong port), count"
vector 8 WirelessB.hostR1.udp droppedPkBadChecksum:vector(count) ETV
attr interpolationmode none
attr recordingmode vector(count)
attr source packetDropReasonIsIncorrectlyReceived(packetDropped)
attr title "packets dropped (checksum error), count"
vector 9 WirelessB.hostR2.udp passedUpPk:vector(count) ETV
attr interpolationmode none
attr recordingmode vector(count)
attr source packetSentToUpper
attr title "packets passed up, count"
vector 10 WirelessB.hostR2.udp droppedPkWrongPort:vector(count) ETV
attr interpolationmode none
attr recordingmode vector(count)
attr source packetDropReasonIsNoPortFound(packetDropped)
attr title "packets dropped (wrong port), count"
vector 11 WirelessB.hostR2.udp droppedPkBadChecksum:vector(count) ETV
attr interpolationmode none
attr recordingmode vector(count)
attr source packetDropReasonIsIncorrectlyReceived(packetDropped)
attr title "packets dropped (checksum error), count"
vector 12 WirelessB.hostR3.udp passedUpPk:vector(count) ETV
attr interpolationmode none
attr recordingmode vector(count)
attr source packetSentToUpper
attr title "packets passed up, count"
vector 13 WirelessB.hostR3.udp droppedPkWrongPort:vector(count) ETV
attr interpolationmode none
attr recordingmode vector(count)
attr source packetDropReasonIsNoPortFound(packetDropped)
attr title "packets dropped (wrong port), count"
vector 14 WirelessB.hostR3.udp droppedPkBadChecksum:vector(count) ETV
attr interpolationmode none
attr recordingmode vector(count)
attr source packetDropReasonIsIncorrectlyReceived(packetDropped)
attr title "packets dropped (checksum error), count"
vector 15 WirelessB.hostA.wlan[0].radio radioMode:vector ETV
attr interpolationmode sample-hold
attr recordingmode vector
attr source radioModeChanged
attr title "Radio mode"
vector 16 WirelessB.hostB.wlan[0].radio radioMode:vector ETV
attr interpolationmode sample-hold
attr recordingmode vector
attr source radioModeChanged
attr title "Radio mode"
vector 17 WirelessB.hostR1.wlan[0].radio radioMode:vector ETV
attr interpolationmode sample-hold
attr recordingmode vector
attr source radioModeChanged
attr title "Radio mode"
vector 18 WirelessB.hostR2.wlan[0].radio radioMode:vector ETV
attr interpolationmode sample-hold
attr recordingmode vector
attr source radioModeChanged
attr title "Radio mode"
vector 19 WirelessB.hostR3.wlan[0].radio radioMode:vector ETV
attr interpolationmode sample-hold
attr recordingmode vector
attr source radioModeChanged
attr title "Radio mode"
vector 20 WirelessB.hostA.wlan[0].radio receptionState:vector ETV
attr interpolationmode sample-hold
attr recordingmode vector
attr source receptionStateChanged
attr title "Radio reception state"
vector 21 WirelessB.hostB.wlan[0].radio receptionState:vector ETV
attr interpolationmode sample-hold
attr recordingmode vector
attr source receptionStateChanged
attr title "Radio reception state"
vector 22 WirelessB.hostR1.wlan[0].radio receptionState:vector ETV
attr interpolationmode sample-hold
attr recordingmode vector
attr source receptionStateChanged
attr title "Radio reception state"
vector 23 WirelessB.hostR2.wlan[0].radio receptionState:vector ETV
attr interpolationmode sample-hold
attr recordingmode vector
attr source receptionStateChanged
attr title "Radio reception state"
vector 24 WirelessB.hostR3.wlan[0].radio receptionState:vector ETV
attr interpolationmode sample-hold
attr recordingmode vector
attr source receptionStateChanged
attr title "Radio reception state"
0	0	0	0
1	0	0	0
2	0	0	0
3	0	0	0
4	0	0	0
5	0	0	0
6	0	0	0
7	0	0	0
8	0	0	0
9	0	0	0
10	0	0	0
11	0	0	0
12	0	0	0
13	0	0	0
14	0	0	0
15	0	0	0
15	0	0	0
15	0	0	2
16	0	0	0
16	0	0	0
16	0	0	2
17	0	0	0
17	0	0	0
17	0	0	2
18	0	0	0
18	0	0	0
18	0	0	2
19	0	0	0
19	0	0	0
19	0	0	2
20	0	0	1
21	0	0	1
22	0	0	1
23	0	0	1
24	0	0	1
vector 25 WirelessB.hostA.app[0] packetSent:vector(packetBytes) ETV
attr interpolationmode none
attr recordingmode vector(packetBytes)
attr source packetSent
attr title "packets sent, packetBytes"
vector 26 WirelessB.hostA.udp packetSent:vector(packetBytes) ETV
attr interpolationmode none
attr recordingmode vector(packetBytes)
attr source packetSent
attr title "packets sent, packetBytes"
vector 27 WirelessB.hostA.wlan[0].queue incomingPacketLengths:vector ETV
attr interpolationmode none
attr recordingmode vector
attr source packetLength(packetPushStarted)
attr title "incoming packet lengths"
attr unit b
vector 28 WirelessB.hostA.wlan[0].queue queueingTime:vector ETV
attr interpolationmode none
attr recordingmode vector
attr source queueingTime(packetPulled)
attr title "queueing times"
attr unit s
vector 29 WirelessB.hostA.wlan[0].queue outgoingPacketLengths:vector ETV
attr interpolationmode none
attr recordingmode vector
attr source packetLength(packetPulled)
attr title "outgoing packet lengths"
attr unit b
vector 30 WirelessB.hostA.wlan[0].mac rcvdPkFromHl:vector(packetBytes) ETV
attr interpolationmode none
attr recordingmode vector(packetBytes)
attr source packetReceivedFromUpper
attr title "packets received from higher layer, packetBytes"
vector 31 WirelessB.hostA.wlan[0].radio transmissionState:vector ETV
attr interpolationmode sample-hold
attr recordingmode vector
attr source transmissionStateChanged
attr title "Radio transmission state"
vector 32 WirelessB.hostA.wlan[0].mac sentDownPk:vector(packetBytes) ETV
attr interpolationmode none
attr recordingmode vector(packetBytes)
attr source packetSentToLower
attr title "packets sent to lower layer, packetBytes"
vector 33 WirelessB.hostA.wlan[0].queue queueLength:vector ETV
attr autoWarmupFilter false
attr interpolationmode sample-hold
attr recordingmode vector
attr source "warmup(atomic(constant0(packetPushEnded) + count(packetPushStarted) - count(packetPulled) - count(packetRemoved) - count(packetDropped)))"
attr title "queue length"
attr unit pk
vector 34 WirelessB.hostA.wlan[0].queue queueBitLength:vector ETV
attr autoWarmupFilter false
attr interpolationmode sample-hold
attr recordingmode vector
attr source "warmup(atomic(constant0(packetPushEnded) + sum(packetLength(packetPushStarted)) - sum(packetLength(packetPulled)) - sum(packetLength(packetRemoved)) - sum(packetLength(packetDropped))))"
attr title "queue bit length"
attr unit b
vector 35 WirelessB.hostR2.wlan[0].mac rcvdPkFromLl:vector(packetBytes) ETV
attr interpolationmode none
attr recordingmode vector(packetBytes)
attr source packetReceivedFromLower
attr title "packets received from lower layer, packetBytes"
vector 36 WirelessB.hostR2.wlan[0].mac passedUpPk:vector(packetBytes) ETV
attr interpolationmode none
attr recordingmode vector(packetBytes)
attr source packetSentToUpper
attr title "packets passed to higher layer, packetBytes"
vector 37 WirelessB.hostR2.wlan[0].queue incomingPacketLengths:vector ETV
attr interpolationmode none
attr recordingmode vector
attr source packetLength(packetPushStarted)
attr title "incoming packet lengths"
attr unit b
vector 38 WirelessB.hostR2.wlan[0].queue queueingTime:vector ETV
attr interpolationmode none
attr recordingmode vector
attr source queueingTime(packetPulled)
attr title "queueing times"
attr unit s
vector 39 WirelessB.hostR2.wlan[0].queue outgoingPacketLengths:vector ETV
attr interpolationmode none
attr recordingmode vector
attr source packetLength(packetPulled)
attr title "outgoing packet lengths"
attr unit b
vector 40 WirelessB.hostR2.wlan[0].mac rcvdPkFromHl:vector(packetBytes) ETV
attr interpolationmode none
attr recordingmode vector(packetBytes)
attr source packetReceivedFromUpper
attr title "packets received from higher layer, packetBytes"
vector 41 WirelessB.hostR2.wlan[0].radio transmissionState:vector ETV
attr interpolationmode sample-hold
attr recordingmode vector
attr source transmissionStateChanged
attr title "Radio transmission state"
vector 42 WirelessB.hostR2.wlan[0].mac sentDownPk:vector(packetBytes) ETV
attr interpolationmode none
attr recordingmode vector(packetBytes)
attr source packetSentToLower
attr title "packets sent to lower layer, packetBytes"
vector 43 WirelessB.hostR2.wlan[0].queue queueLength:vector ETV
attr autoWarmupFilter false
attr interpolationmode sample-hold
attr recordingmode vector
attr source "warmup(atomic(constant0(packetPushEnded) + count(packetPushStarted) - count(packetPulled) - count(packetRemoved) - count(packetDropped)))"
attr title "queue length"
attr unit pk
vector 44 WirelessB.hostR2.wlan[0].queue queueBitLength:vector ETV
attr autoWarmupFilter false
attr interpolationmode sample-hold
attr recordingmode vector
attr source "warmup(atomic(constant0(packetPushEnded) + sum(packetLength(packetPushStarted)) - sum(packetLength(packetPulled)) - sum(packetLength(packetRemoved)) - sum(packetLength(packetDropped))))"
attr title "queue bit length"
attr unit b
vector 45 WirelessB.hostR1.wlan[0].mac rcvdPkFromLl:vector(packetBytes) ETV
attr interpolationmode none
attr recordingmode vector(packetBytes)
attr source packetReceivedFromLower
attr title "packets received from lower layer, packetBytes"
vector 46 WirelessB.hostR1.wlan[0].mac packetDropNotAddressedToUs:vector(packetBytes) ETV
attr interpolationmode none
attr recordingmode vector(packetBytes)
attr source packetDropReasonIsNotAddressedToUs(packetDropped)
attr title "packet drop: not addressed to us, packetBytes"
vector 47 WirelessB.hostR3.wlan[0].mac rcvdPkFromLl:vector(packetBytes) ETV
attr interpolationmode none
attr recordingmode vector(packetBytes)
attr source packetReceivedFromLower
attr title "packets received from lower layer, packetBytes"
vector 48 WirelessB.hostR3.wlan[0].mac passedUpPk:vector(packetBytes) ETV
attr interpolationmode none
attr recordingmode vector(packetBytes)
attr source packetSentToUpper
attr title "packets passed to higher layer, packetBytes"
vector 49 WirelessB.hostR3.wlan[0].queue incomingPacketLengths:vector ETV
attr interpolationmode none
attr recordingmode vector
attr source packetLength(packetPushStarted)
attr title "incoming packet lengths"
attr unit b
vector 50 WirelessB.hostR3.wlan[0].queue queueingTime:vector ETV
attr interpolationmode none
attr recordingmode vector
attr source queueingTime(packetPulled)
attr title "queueing times"
attr unit s
vector 51 WirelessB.hostR3.wlan[0].queue outgoingPacketLengths:vector ETV
attr interpolationmode none
attr recordingmode vector
attr source packetLength(packetPulled)
attr title "outgoing packet lengths"
attr unit b
vector 52 WirelessB.hostR3.wlan[0].mac rcvdPkFromHl:vector(packetBytes) ETV
attr interpolationmode none
attr recordingmode vector(packetBytes)
attr source packetReceivedFromUpper
attr title "packets received from higher layer, packetBytes"
vector 53 WirelessB.hostR3.wlan[0].radio transmissionState:vector ETV
attr interpolationmode sample-hold
attr recordingmode vector
attr source transmissionStateChanged
attr title "Radio transmission state"
vector 54 WirelessB.hostR3.wlan[0].mac sentDownPk:vector(packetBytes) ETV
attr interpolationmode none
attr recordingmode vector(packetBytes)
attr source packetSentToLower
attr title "packets sent to lower layer, packetBytes"
vector 55 WirelessB.hostR3.wlan[0].queue queueLength:vector ETV
attr autoWarmupFilter false
attr interpolationmode sample-hold
attr recordingmode vector
attr source "warmup(atomic(constant0(packetPushEnded) + count(packetPushStarted) - count(packetPulled) - count(packetRemoved) - count(packetDropped)))"
attr title "queue length"
attr unit pk
vector 56 WirelessB.hostR3.wlan[0].queue queueBitLength:vector ETV
attr autoWarmupFilter false
attr interpolationmode sample-hold
attr recordingmode vector
attr source "warmup(atomic(constant0(packetPushEnded) + sum(packetLength(packetPushStarted)) - sum(packetLength(packetPulled)) - sum(packetLength(packetRemoved)) - sum(packetLength(packetDropped))))"
attr title "queue bit length"
attr unit b
vector 57 WirelessB.hostB.wlan[0].mac rcvdPkFromLl:vector(packetBytes) ETV
attr interpolationmode none
attr recordingmode vector(packetBytes)
attr source packetReceivedFromLower
attr title "packets received from lower layer, packetBytes"
vector 58 WirelessB.hostB.wlan[0].mac passedUpPk:vector(packetBytes) ETV
attr interpolationmode none
attr recordingmode vector(packetBytes)
attr source packetSentToUpper
attr title "packets passed to higher layer, packetBytes"
vector 59 WirelessB.hostB.udp packetReceived:vector(packetBytes) ETV
attr interpolationmode none
attr recordingmode vector(packetBytes)
attr source packetReceived
attr title "packets received, packetBytes"
vector 60 WirelessB.hostB.app[0] packetReceived:vector(packetBytes) ETV
attr interpolationmode none
attr recordingmode vector(packetBytes)
attr source packetReceived
attr title "packets received, packetBytes"
vector 61 WirelessB.hostB.app[0] endToEndDelay:vector ETV
attr interpolationmode none
attr recordingmode vector
attr source dataAge(packetReceived)
attr title "end-to-end delay"
attr unit s
vector 62 WirelessB.hostB.app[0] rcvdPkSeqNo:vector ETV
attr interpolationmode none
attr recordingmode vector
attr source appPkSeqNo(packetReceived)
attr title "received packet sequence number"
vector 63 WirelessB.hostR2.wlan[0].mac packetDropNotAddressedToUs:vector(packetBytes) ETV
attr interpolationmode none
attr recordingmode vector(packetBytes)
attr source packetDropReasonIsNotAddressedToUs(packetDropped)
attr title "packet drop: not addressed to us, packetBytes"
vector 64 WirelessB.hostA.wlan[0].mac rcvdPkFromLl:vector(packetBytes) ETV
attr interpolationmode none
attr recordingmode vector(packetBytes)
attr source packetReceivedFromLower
attr title "packets received from lower layer, packetBytes"
vector 65 WirelessB.hostA.wlan[0].mac packetDropNotAddressedToUs:vector(packetBytes) ETV
attr interpolationmode none
attr recordingmode vector(packetBytes)
attr source packetDropReasonIsNotAddressedToUs(packetDropped)
attr title "packet drop: not addressed to us, packetBytes"
vector 66 WirelessB.hostR2.wlan[0].queue incomingDataRate:vector ETV
attr interpolationmode linear
attr recordingmode vector
attr source throughput(packetPushStarted)
attr title "incoming datarate"
attr unit bps
vector 67 WirelessB.hostR2.wlan[0].queue outgoingDataRate:vector ETV
attr interpolationmode linear
attr recordingmode vector
attr source throughput(packetPulled)
attr title "outgoing datarate"
attr unit bps
vector 68 WirelessB.hostA.wlan[0].queue incomingDataRate:vector ETV
attr interpolationmode linear
attr recordingmode vector
attr source throughput(packetPushStarted)
attr title "incoming datarate"
attr unit bps
vector 69 WirelessB.hostA.wlan[0].queue outgoingDataRate:vector ETV
attr interpolationmode linear
attr recordingmode vector
attr source throughput(packetPulled)
attr title "outgoing datarate"
attr unit bps
vector 70 WirelessB.hostR3.wlan[0].queue incomingDataRate:vector ETV
attr interpolationmode linear
attr recordingmode vector
attr source throughput(packetPushStarted)
attr title "incoming datarate"
attr unit bps
vector 71 WirelessB.hostR3.wlan[0].queue outgoingDataRate:vector ETV
attr interpolationmode linear
attr recordingmode vector
attr source throughput(packetPulled)
attr title "outgoing datarate"
attr unit bps
vector 72 WirelessB.hostB.app[0] throughput:vector ETV
attr recordingmode vector
attr source throughput(packetReceived)
attr title throughput
attr unit bps
3	82	0.047828985599	1
3	132	0.064836985599	2
3	203	0.096517149872	3
3	278	0.123546635958	4
3	349	0.175829938804	5
3	414	0.202135415639	6
3	488	0.22920395061	7
3	568	0.266957523392	8
3	670	0.303731769796	9
3	749	0.320739769796	10
3	808	0.337747769796	11
3	867	0.354755769796	12
3	926	0.371763769796	13
3	985	0.388771769796	14
3	1030	0.405779769796	15
3	1084	0.434406236497	16
3	1161	0.469159535419	17
3	1245	0.498873544997	18
3	1330	0.525840757126	19
3	1358	0.542848757126	20
3	1431	0.572910117458	21
3	1515	0.662021469566	22
3	1591	0.68949245981	23
3	1671	0.71678101122	24
3	1755	0.775285584041	25
3	1822	0.805328816612	26
3	1883	0.85650684762	27
3	1988	0.89032170635	28
3	2038	0.90732970635	29
3	2066	0.92433770635	30
3	2152	0.952144655785	31
3	2193	0.969152655785	32
3	2245	1.004850773423	33
3	2331	1.03489771482	34
3	2368	1.05190571482	35
3	2425	1.080398443907	36
3	2476	1.110225432191	37
3	2571	1.140709086287	38
3	2634	1.157717086287	39
3	2666	1.174725086287	40
3	2766	1.202531915389	41
3	2833	1.219539915389	42
3	2896	1.236547915389	43
3	2955	1.253555915389	44
3	3018	1.270563915389	45
3	3068	1.287571915389	46
3	3118	1.304579915389	47
3	3198	1.356215314174	48
3	3282	1.423163241467	49
3	3362	1.450631383938	50
3	3416	1.479007438099	51
3	3489	1.510329675358	52
3	3591	1.543060444149	53
3	3654	1.560068444149	54
3	3699	1.577076444149	55
3	3775	1.602769614709	56
3	3885	1.646030341476	57
3	3940	1.663038341476	58
3	3981	1.680046341476	59
3	4083	1.713955806478	60
3	4115	1.730963806478	61
3	4215	1.765807433531	62
3	4278	1.782815433531	63
3	4337	1.799823433531	64
3	4369	1.816831433531	65
3	4465	1.850147230994	66
3	4519	1.867155230994	67
3	4556	1.884163230994	68
3	4648	1.911961823712	69
3	4676	1.928969823712	70
3	4783	1.960630953865	71
3	4842	1.977638953865	72
3	4897	1.994646953865	73
3	4938	2.011654953865	74
3	5048	2.050831934099	75
3	5107	2.067839934099	76
3	5166	2.084847934099	77
3	5198	2.101855934099	78
3	5272	2.140466811703	79
3	5374	2.180978019359	80
3	5406	2.197986019359	81
3	5480	2.262877856998	82
3	5551	2.304214692211	83
3	5633	2.360946028982	84
3	5727	2.387649789623	85
3	5759	2.404657789623	86
3	5841	2.438997955989	87
3	5913	2.469699610823	88
3	5993	2.532992071832	89
3	6073	2.577053376985	90
3	6144	2.614775593011	91
3	6231	2.641034756243	92
3	6259	2.658042756243	93
3	6345	2.684374929491	94
3	6386	2.701382929491	95
3	6460	2.743047183412	96
3	6562	2.772509384318	97
3	6616	2.789517384318	98
3	6666	2.806525384318	99
3	6746	2.83681440241	100
3	6817	2.882297571374	101
3	6895	2.924699870089	102
3	6975	2.955782342691	103
3	7064	2.985986974443	104
3	7105	3.002994974443	105
3	7201	3.032616905622	106
3	7255	3.049624905622	107
3	7313	3.066632905622	108
3	7415	3.09993802828	109
3	7478	3.11694602828	110
3	7541	3.13395402828	111
3	7604	3.15096202828	112
3	7675	3.16797002828	113
3	7730	3.18497802828	114
3	7789	3.20198602828	115
3	7839	3.21899402828	116
3	7876	3.23600202828	117
3	7977	3.275739623583	118
3	8018	3.292747623583	119
3	8111	3.326966158876	120
3	8148	3.343974158876	121
3	8227	3.371045165499	122
3	8298	3.408546308867	123
3	8372	3.439156703037	124
3	8439	3.503476655397	125
3	8496	3.54546246941	126
3	8573	3.595884782525	127
3	8679	3.629700890889	128
3	8734	3.646708890889	129
3	8775	3.663716890889	130
3	8868	3.697373536975	131
3	8918	3.714381536975	132
3	9020	3.745951570363	133
3	9052	3.762959570363	134
3	9117	3.800266765853	135
3	9213	3.841647112134	136
3	9254	3.858655112134	137
3	9325	3.889560287641	138
3	9399	3.918050574744	139
3	9505	3.962815176218	140
3	9568	3.979823176218	141
3	9631	3.996831176218	142
3	9690	4.013839176218	143
3	9753	4.030847176218	144
3	9785	4.047855176218	145
3	9867	4.073981913333	146
3	9939	4.09953401012	147
3	10041	4.135607940272	148
3	10104	4.152615940272	149
3	10158	4.169623940272	150
3	10186	4.186631940272	151
3	10259	4.216618303786	152
3	10326	4.248697025598	153
3	10427	4.281616819205	154
3	10468	4.298624819205	155
3	10570	4.325739869743	156
3	10645	4.342747869743	157
3	10708	4.359755869743	158
3	10763	4.376763869743	159
3	10826	4.393771869743	160
3	10885	4.410779869743	161
3	10930	4.427787869743	162
3	11028	4.456509525378	163
3	11091	4.473517525378	164
3	11145	4.490525525378	165
3	11203	4.507533525378	166
3	11288	4.539664175903	167
3	11325	4.556672175903	168
3	11417	4.585447494706	169
3	11458	4.602455494706	170
3	11511	4.630701521573	171
3	11606	4.682857972985	172
3	11638	4.699865972985	173
3	11690	4.73294458987	174
3	11763	4.766071843338	175
3	11869	4.805067493802	176
3	11928	4.822075493802	177
3	11982	4.839083493802	178
3	12032	4.856091493802	179
3	12142	4.889692759865	180
3	12205	4.906700759865	181
3	12268	4.923708759865	182
3	12331	4.940716759865	183
3	12390	4.957724759865	184
3	12453	4.974732759865	185
3	12512	4.991740759865	186
3	12544	5.008748759865	187
3	12644	5.048851408734	188
3	12703	5.065859408734	189
3	12744	5.082867408734	190
3	12837	5.116234172639	191
3	12887	5.133242172639	192
3	12980	5.162675183883	193
3	13008	5.179683183883	194
3	13068	5.209549198116	195
3	13138	5.241138060964	196
3	13212	5.268345584744	197
3	13305	5.333188526269	198
3	13355	5.350196526269	199
3	13457	5.401172103803	200
3	13489	5.418180103803	201
3	13589	5.452129490152	202
3	13639	5.469137490152	203
3	13693	5.486145490152	204
3	13760	5.511836136882	205
3	13861	5.544317952323	206
3	13920	5.561325952323	207
3	13983	5.578333952323	208
3	14037	5.595341952323	209
3	14074	5.612349952323	210
3	14157	5.641185978994	211
3	14267	5.672206695719	212
3	14326	5.689214695719	213
3	14385	5.706222695719	214
3	14448	5.723230695719	215
3	14507	5.740238695719	216
3	14574	5.757246695719	217
3	14624	5.774254695719	218
3	14669	5.791262695719	219
3	14731	5.823720954863	220
3	14831	5.863044049173	221
3	14881	5.880052049173	222
3	14909	5.897060049173	223
3	14973	5.9265183949	224
3	15038	5.972453250093	225
3	15112	5.999038947201	226
3	15214	6.044770926975	227
3	15246	6.061778926975	228
3	15311	6.102660476621	229
3	15376	6.132686179847	230
3	15454	6.16389471007	231
3	15521	6.189594710342	232
3	15573	6.230763964486	233
3	15637	6.257567642699	234
3	15715	6.283360567252	235
3	15791	6.309907041285	236
3	15897	6.342526307771	237
3	15964	6.359534307771	238
3	16019	6.376542307771	239
3	16082	6.393550307771	240
3	16114	6.410558307771	241
3	16192	6.448336108898	242
3	16294	6.47943295054	243
3	16353	6.49644095054	244
3	16385	6.51344895054	245
3	16446	6.551759362978	246
3	16525	6.602847171579	247
3	16605	6.636890594556	248
3	16676	6.680033544129	249
3	16741	6.746132899568	250
3	16806	6.771649774681	251
3	16871	6.800107780626	252
3	16932	6.835595712133	253
3	17033	6.869553565615	254
3	17100	6.886561565615	255
3	17167	6.903569565615	256
3	17238	6.920577565615	257
3	17297	6.937585565615	258
3	17356	6.954593565615	259
3	17415	6.971601565615	260
3	17482	6.988609565615	261
3	17549	7.005617565615	262
3	17608	7.022625565615	263
3	17663	7.039633565615	264
3	17717	7.056641565615	265
3	17767	7.073649565615	266
3	17873	7.107562283526	267
3	17936	7.124570283526	268
3	18003	7.141578283526	269
3	18066	7.158586283526	270
3	18121	7.175594283526	271
3	18153	7.192602283526	272
3	18231	7.21998572604	273
3	18298	7.250076673078	274
3	18386	7.27961508732	275
3	18423	7.29662308732	276
3	18480	7.328838754614	277
3	18553	7.358744754883	278
3	18633	7.387068876695	279
3	18700	7.417840031974	280
3	18770	7.4470367346	281
3	18835	7.495282894024	282
3	18909	7.535713541683	283
3	18967	7.566099943932	284
3	19070	7.600517395804	285
3	19133	7.617525395804	286
3	19196	7.634533395804	287
3	19259	7.651541395804	288
3	19318	7.668549395804	289
3	19368	7.685557395804	290
3	19409	7.702565395804	291
3	19496	7.745843159295	292
3	19533	7.762851159295	293
3	19616	7.80227858363	294
3	19687	7.83101232757	295
3	19784	7.861010188038	296
3	19834	7.878018188038	297
3	19862	7.895026188038	298
3	19913	7.922679434323	299
3	20008	7.949907063362	300
3	20062	7.966915063362	301
3	20090	7.983923063362	302
3	20201	8.018784815007	303
3	20256	8.035792815007	304
3	20327	8.052800815007	305
3	20386	8.069808815007	306
3	20449	8.086816815007	307
3	20504	8.103824815007	308
3	20563	8.120832815007	309
3	20630	8.137840815007	310
3	20680	8.154848815007	311
3	20721	8.171856815007	312
3	20795	8.19876035405	313
3	20897	8.22763460254	314
3	20960	8.24464260254	315
3	21001	8.26165060254	316
3	21059	8.297580526543	317
3	21123	8.324212072804	318
3	21175	8.357443773119	319
3	21235	8.395572940577	320
3	21305	8.472718417126	321
3	21366	8.500618048533	322
3	21445	8.533587620315	323
3	21567	8.56263791297	324
3	21622	8.57964591297	325
3	21681	8.59665391297	326
3	21740	8.61366191297	327
3	21790	8.63066991297	328
3	21831	8.64767791297	329
3	21914	8.674121955097	330
3	22020	8.702447208757	331
3	22079	8.719455208757	332
3	22142	8.736463208757	333
15	8	0.022315250545	3
15	18	0.030819250545	2
15	18	0.030819250545	3
15	40	0.039323250545	2
15	40	0.039323250545	3
15	65	0.047827250545	2
15	93	0.053995414818	3
15	118	0.062499414818	2
15	118	0.062499414818	3
15	144	0.071003414818	2
15	144	0.071003414818	3
15	156	0.079507414818	2
15	189	0.089528900904	3
15	211	0.098032900904	2
15	211	0.098032900904	3
15	222	0.106536900904	2
15	238	0.107003186959	3
15	263	0.115507186959	2
15	263	0.115507186959	3
15	285	0.124011186959	2
15	297	0.15031620375	3
15	307	0.15882020375	2
15	307	0.15882020375	3
15	325	0.16732420375	2
15	359	0.176621680585	3
15	371	0.185125680585	2
15	371	0.185125680585	3
15	390	0.193629680585	2
15	426	0.203690215556	3
15	433	0.212194215556	2
15	449	0.21250978861	3
15	469	0.22101378861	2
15	478	0.226141055911	3
15	497	0.234645055911	2
15	506	0.241443788338	3
15	513	0.249947788338	2
15	529	0.251911642679	3
15	550	0.260415642679	2
15	558	0.261161658581	3
15	576	0.269665658581	2
15	586	0.278218034742	3
15	597	0.286722034742	2
15	597	0.286722034742	3
15	623	0.295226034742	2
15	623	0.295226034742	3
15	648	0.303730034742	2
15	648	0.303730034742	3
15	690	0.312234034742	2
15	690	0.312234034742	3
15	727	0.320738034742	2
15	727	0.320738034742	3
15	761	0.329242034742	2
15	761	0.329242034742	3
15	786	0.337746034742	2
15	786	0.337746034742	3
15	816	0.346250034742	2
15	816	0.346250034742	3
15	845	0.354754034742	2
15	845	0.354754034742	3
15	879	0.363258034742	2
15	879	0.363258034742	3
15	904	0.371762034742	2
15	904	0.371762034742	3
15	938	0.380266034742	2
15	938	0.380266034742	3
15	963	0.388770034742	2
15	963	0.388770034742	3
15	993	0.397274034742	2
15	1016	0.400388501443	3
15	1039	0.408892501443	2
15	1039	0.408892501443	3
15	1050	0.417396501443	2
15	1095	0.443645800365	3
15	1102	0.452149800365	2
15	1118	0.456351809943	3
15	1147	0.464855809943	2
15	1147	0.464855809943	3
15	1169	0.473359809943	2
15	1169	0.473359809943	3
15	1185	0.481863809943	2
15	1185	0.481863809943	3
15	1204	0.490367809943	2
15	1226	0.491823022072	3
15	1252	0.500327022072	2
15	1252	0.500327022072	3
15	1264	0.508831022072	2
15	1264	0.508831022072	3
15	1288	0.517335022072	2
15	1288	0.517335022072	3
15	1313	0.525839022072	2
15	1369	0.547396382404	3
15	1376	0.555900382404	2
15	1392	0.560090299364	3
15	1413	0.568594299364	2
15	1421	0.572186530309	3
15	1440	0.580690530309	2
15	1450	0.636507734512	3
15	1456	0.645011734512	2
15	1472	0.646970724756	3
15	1497	0.655474724756	2
15	1497	0.655474724756	3
15	1523	0.663978724756	2
15	1523	0.663978724756	3
15	1535	0.672482724756	2
15	1551	0.672839241789	3
15	1576	0.681343241789	2
15	1576	0.681343241789	3
15	1598	0.689847241789	2
15	1607	0.691267276166	3
15	1619	0.699771276166	2
15	1619	0.699771276166	3
15	1638	0.708275276166	2
15	1661	0.713925570285	3
15	1680	0.722429570285	2
15	1690	0.749771848987	3
15	1696	0.758275848987	2
15	1712	0.762807081558	3
15	1737	0.771311081558	2
15	1737	0.771311081558	3
15	1763	0.779815081558	2
15	1763	0.779815081558	3
15	1779	0.788319081558	2
15	1779	0.788319081558	3
15	1798	0.796823081558	2
15	1835	0.830993112566	3
15	1841	0.839497112566	2
15	1873	0.856256968176	3
15	1891	0.864760968176	2
15	1899	0.864807971296	3
15	1918	0.873311971296	2
15	1918	0.873311971296	3
15	1941	0.881815971296	2
15	1941	0.881815971296	3
15	1966	0.890319971296	2
15	1966	0.890319971296	3
15	1996	0.898823971296	2
15	1996	0.898823971296	3
15	2021	0.907327971296	2
15	2077	0.926630920731	3
15	2088	0.935134920731	2
15	2088	0.935134920731	3
15	2110	0.943638920731	2
15	2110	0.943638920731	3
15	2135	0.952142920731	2
15	2163	0.953846192005	3
15	2184	0.962350192005	2
15	2206	0.979337038369	3
15	2212	0.987841038369	2
15	2256	1.009383979766	3
15	2267	1.017887979766	2
15	2267	1.017887979766	3
15	2289	1.026391979766	2
15	2289	1.026391979766	3
15	2314	1.034895979766	2
15	2358	1.046349733606	3
15	2376	1.054853733606	2
15	2384	1.054884708853	3
15	2391	1.063388708853	2
15	2436	1.084711697137	3
15	2443	1.093215697137	2
15	2487	1.115195351233	3
15	2506	1.123699351233	2
15	2506	1.123699351233	3
15	2524	1.132203351233	2
15	2524	1.132203351233	3
15	2549	1.140707351233	2
15	2549	1.140707351233	3
15	2583	1.149211351233	2
15	2583	1.149211351233	3
15	2612	1.157715351233	2
15	2612	1.157715351233	3
15	2642	1.166219351233	2
15	2678	1.177018180335	3
15	2689	1.185522180335	2
15	2689	1.185522180335	3
15	2711	1.194026180335	2
15	2711	1.194026180335	3
15	2744	1.202530180335	2
15	2744	1.202530180335	3
15	2782	1.211034180335	2
15	2782	1.211034180335	3
15	2811	1.219538180335	2
15	2811	1.219538180335	3
15	2841	1.228042180335	2
15	2841	1.228042180335	3
15	2874	1.236546180335	2
15	2874	1.236546180335	3
15	2908	1.245050180335	2
15	2908	1.245050180335	3
15	2933	1.253554180335	2
15	2933	1.253554180335	3
15	2967	1.262058180335	2
15	2967	1.262058180335	3
15	2996	1.270562180335	2
15	2996	1.270562180335	3
15	3026	1.279066180335	2
15	3026	1.279066180335	3
15	3051	1.287570180335	2
15	3079	1.291819591578	3
15	3100	1.300323591578	2
15	3108	1.304043496338	3
15	3127	1.312547496338	2
15	3137	1.33070157912	3
15	3143	1.33920557912	2
15	3159	1.344376874682	3
15	3184	1.352880874682	2
15	3184	1.352880874682	3
15	3206	1.361384874682	2
15	3217	1.397649506413	3
15	3227	1.406153506413	2
15	3227	1.406153506413	3
15	3245	1.414657506413	2
15	3268	1.416613648884	3
15	3291	1.425117648884	2
15	3291	1.425117648884	3
15	3302	1.433621648884	2
15	3319	1.436485703045	3
15	3348	1.444989703045	2
15	3348	1.444989703045	3
15	3370	1.453493703045	2
15	3370	1.453493703045	3
15	3382	1.461997703045	2
15	3427	1.484815940304	3
15	3434	1.493319940304	2
15	3450	1.495470277229	3
15	3471	1.503974277229	2
15	3479	1.508404295839	3
15	3498	1.516908295839	2
15	3506	1.517546709095	3
15	3517	1.526050709095	2
15	3517	1.526050709095	3
15	3540	1.534554709095	2
15	3540	1.534554709095	3
15	3569	1.543058709095	2
15	3569	1.543058709095	3
15	3603	1.551562709095	2
15	3603	1.551562709095	3
15	3632	1.560066709095	2
15	3632	1.560066709095	3
15	3662	1.568570709095	2
15	3683	1.568751879655	3
15	3706	1.577255879655	2
15	3706	1.577255879655	3
15	3722	1.585759879655	2
15	3722	1.585759879655	3
15	3742	1.594263879655	2
15	3764	1.595227235163	3
15	3782	1.603731235163	2
15	3794	1.620516606422	3
15	3812	1.629020606422	2
15	3812	1.629020606422	3
15	3830	1.637524606422	2
15	3830	1.637524606422	3
15	3863	1.646028606422	2
15	3863	1.646028606422	3
15	3893	1.654532606422	2
15	3893	1.654532606422	3
15	3918	1.663036606422	2
15	3918	1.663036606422	3
15	3948	1.671540606422	2
15	3971	1.679938071424	3
15	3998	1.688442071424	2
15	3998	1.688442071424	3
15	4017	1.696946071424	2
15	4017	1.696946071424	3
15	4036	1.705450071424	2
15	4036	1.705450071424	3
15	4061	1.713954071424	2
15	4061	1.713954071424	3
15	4091	1.722458071424	2
15	4127	1.740293698477	3
15	4138	1.748797698477	2
15	4138	1.748797698477	3
15	4160	1.757301698477	2
15	4160	1.757301698477	3
15	4193	1.765805698477	2
15	4193	1.765805698477	3
15	4227	1.774309698477	2
15	4227	1.774309698477	3
15	4256	1.782813698477	2
15	4256	1.782813698477	3
15	4286	1.791317698477	2
15	4286	1.791317698477	3
15	4315	1.799821698477	2
15	4315	1.799821698477	3
15	4345	1.808325698477	2
15	4381	1.82463349594	3
15	4392	1.83313749594	2
15	4392	1.83313749594	3
15	4418	1.84164149594	2
15	4418	1.84164149594	3
15	4443	1.85014549594	2
15	4443	1.85014549594	3
15	4477	1.85864949594	2
15	4477	1.85864949594	3
15	4502	1.86715349594	2
15	4546	1.877944088658	3
15	4572	1.886448088658	2
15	4572	1.886448088658	3
15	4587	1.894952088658	2
15	4587	1.894952088658	3
15	4606	1.903456088658	2
15	4606	1.903456088658	3
15	4631	1.911960088658	2
15	4687	1.935117218811	3
15	4698	1.943621218811	2
15	4698	1.943621218811	3
15	4724	1.952125218811	2
15	4724	1.952125218811	3
15	4761	1.960629218811	2
15	4761	1.960629218811	3
15	4791	1.969133218811	2
15	4791	1.969133218811	3
15	4820	1.977637218811	2
15	4820	1.977637218811	3
15	4850	1.986141218811	2
15	4850	1.986141218811	3
15	4875	1.994645218811	2
15	4875	1.994645218811	3
15	4905	2.003149218811	2
15	4928	2.008682702821	3
15	4947	2.017186702821	2
15	4956	2.025318199045	3
15	4967	2.033822199045	2
15	4967	2.033822199045	3
15	4989	2.042326199045	2
15	4989	2.042326199045	3
15	5026	2.050830199045	2
15	5026	2.050830199045	3
15	5060	2.059334199045	2
15	5060	2.059334199045	3
15	5085	2.067838199045	2
15	5085	2.067838199045	3
15	5115	2.076342199045	2
15	5115	2.076342199045	3
15	5144	2.084846199045	2
15	5144	2.084846199045	3
15	5174	2.093350199045	2
15	5211	2.114953076649	3
15	5217	2.123457076649	2
15	5233	2.126198741262	3
15	5254	2.134702741262	2
15	5262	2.13709430959	3
15	5281	2.14559830959	2
15	5290	2.155464284305	3
15	5301	2.163968284305	2
15	5301	2.163968284305	3
15	5323	2.172472284305	2
15	5323	2.172472284305	3
15	5352	2.180976284305	2
15	5352	2.180976284305	3
15	5382	2.189480284305	2
15	5419	2.237364121944	3
15	5429	2.245868121944	2
15	5429	2.245868121944	3
15	5447	2.254372121944	2
15	5469	2.254734893547	3
15	5487	2.263238893547	2
15	5499	2.278700957157	3
15	5505	2.287204957157	2
15	5521	2.295377081922	3
15	5542	2.303881081922	2
15	5564	2.335432293928	3
15	5570	2.343936293928	2
15	5586	2.345128054569	3
15	5614	2.353632054569	2
15	5614	2.353632054569	3
15	5640	2.362136054569	2
15	5640	2.362136054569	3
15	5656	2.370640054569	2
15	5656	2.370640054569	3
15	5680	2.379144054569	2
15	5680	2.379144054569	3
15	5705	2.387648054569	2
15	5705	2.387648054569	3
15	5735	2.396152054569	2
15	5771	2.413484220935	3
15	5778	2.421988220935	2
15	5794	2.427177875769	3
15	5823	2.435681875769	2
15	5823	2.435681875769	3
15	5849	2.444185875769	2
15	5849	2.444185875769	3
15	5861	2.452689875769	2
15	5861	2.452689875769	3
15	5880	2.461193875769	2
15	5902	2.462518001412	3
15	5920	2.471022001412	2
15	5932	2.507478336778	3
15	5938	2.515982336778	2
15	5954	2.519015611637	3
15	5975	2.527519611637	2
15	5983	2.528399320288	3
15	6001	2.536903320288	2
15	6012	2.551539641931	3
15	6018	2.560043641931	2
15	6034	2.567882822623	3
15	6059	2.576386822623	2
15	6059	2.576386822623	3
15	6081	2.584890822623	2
15	6091	2.589261857957	3
15	6098	2.597765857957	2
15	6114	2.600470581948	3
15	6135	2.608974581948	2
15	6154	2.615521021189	3
15	6166	2.624025021189	2
15	6166	2.624025021189	3
15	6189	2.632529021189	2
15	6189	2.632529021189	3
15	6214	2.641033021189	2
15	6269	2.658861194437	3
15	6284	2.667365194437	2
15	6284	2.667365194437	3
15	6303	2.675869194437	2
15	6303	2.675869194437	3
15	6328	2.684373194437	2
15	6356	2.689359323221	3
15	6377	2.697863323221	2
15	6399	2.717533448358	3
15	6405	2.726037448358	2
15	6421	2.729987649264	3
15	6446	2.738491649264	2
15	6446	2.738491649264	3
15	6476	2.746995649264	2
15	6476	2.746995649264	3
15	6496	2.755499649264	2
15	6496	2.755499649264	3
15	6515	2.764003649264	2
15	6515	2.764003649264	3
15	6540	2.772507649264	2
15	6540	2.772507649264	3
15	6574	2.781011649264	2
15	6574	2.781011649264	3
15	6599	2.789515649264	2
15	6627	2.794292667356	3
15	6652	2.802796667356	2
15	6652	2.802796667356	3
15	6678	2.811300667356	2
15	6678	2.811300667356	3
15	6690	2.819804667356	2
15	6707	2.82818319492	3
15	6732	2.83668719492	2
15	6732	2.83668719492	3
15	6754	2.84519119492	2
15	6765	2.85678383632	3
15	6775	2.86528783632	2
15	6775	2.86528783632	3
15	6793	2.87379183632	2
15	6830	2.899186135035	3
15	6840	2.907690135035	2
15	6840	2.907690135035	3
15	6858	2.916194135035	2
15	6881	2.921764607637	3
15	6904	2.930268607637	2
15	6904	2.930268607637	3
15	6915	2.938772607637	2
15	6931	2.93949877175	3
15	6952	2.94800277175	2
15	6961	2.951969239389	3
15	6988	2.960473239389	2
15	6988	2.960473239389	3
15	6999	2.968977239389	2
15	6999	2.968977239389	3
15	7022	2.977481239389	2
15	7022	2.977481239389	3
15	7047	2.985985239389	2
15	7075	2.993621644573	3
15	7096	3.002125644573	2
15	7116	3.007103170568	3
15	7132	3.015607170568	2
15	7132	3.015607170568	3
15	7150	3.024111170568	2
15	7150	3.024111170568	3
15	7179	3.032615170568	2
15	7179	3.032615170568	3
15	7213	3.041119170568	2
15	7213	3.041119170568	3
15	7238	3.049623170568	2
15	7266	3.057416293226	3
15	7299	3.065920293226	2
15	7299	3.065920293226	3
15	7321	3.074424293226	2
15	7321	3.074424293226	3
15	7341	3.082928293226	2
15	7341	3.082928293226	3
15	7360	3.091432293226	2
15	7360	3.091432293226	3
15	7393	3.099936293226	2
15	7393	3.099936293226	3
15	7427	3.108440293226	2
15	7427	3.108440293226	3
15	7456	3.116944293226	2
15	7456	3.116944293226	3
15	7486	3.125448293226	2
15	7486	3.125448293226	3
15	7519	3.133952293226	2
15	7519	3.133952293226	3
15	7557	3.142456293226	2
15	7557	3.142456293226	3
15	7582	3.150960293226	2
15	7582	3.150960293226	3
15	7620	3.159464293226	2
15	7620	3.159464293226	3
15	7653	3.167968293226	2
15	7653	3.167968293226	3
15	7683	3.176472293226	2
15	7683	3.176472293226	3
15	7708	3.184976293226	2
15	7708	3.184976293226	3
15	7742	3.193480293226	2
15	7742	3.193480293226	3
15	7767	3.201984293226	2
15	7767	3.201984293226	3
15	7797	3.210488293226	2
15	7797	3.210488293226	3
15	7822	3.218992293226	2
15	7866	3.235637602849	3
15	7884	3.244141602849	2
15	7893	3.250225888529	3
15	7904	3.258729888529	2
15	7904	3.258729888529	3
15	7926	3.267233888529	2
15	7926	3.267233888529	3
15	7955	3.275737888529	2
15	7955	3.275737888529	3
15	7985	3.284241888529	2
15	8008	3.290261081559	3
15	8027	3.298765081559	2
15	8035	3.301452423822	3
15	8047	3.309956423822	2
15	8047	3.309956423822	3
15	8069	3.318460423822	2
15	8069	3.318460423822	3
15	8094	3.326964423822	2
15	8138	3.337027430445	3
15	8160	3.345531430445	2
15	8160	3.345531430445	3
15	8171	3.354035430445	2
15	8188	3.360247898417	3
15	8213	3.368751898417	2
15	8213	3.368751898417	3
15	8235	3.377255898417	2
15	8245	3.383032573813	3
15	8256	3.391536573813	2
15	8256	3.391536573813	3
15	8274	3.400040573813	2
15	8310	3.413642967983	3
15	8321	3.422146967983	2
15	8321	3.422146967983	3
15	8339	3.430650967983	2
15	8362	3.434047032374	3
15	8381	3.442551032374	2
15	8391	3.477962920343	3
15	8397	3.486466920343	2
15	8429	3.501755907198	3
15	8447	3.510259907198	2
15	8456	3.519948734356	3
15	8463	3.528452734356	2
15	8508	3.570371047471	3
15	8514	3.578875047471	2
15	8530	3.587179155835	3
15	8559	3.595683155835	2
15	8559	3.595683155835	3
15	8589	3.604187155835	2
15	8589	3.604187155835	3
15	8605	3.612691155835	2
15	8605	3.612691155835	3
15	8632	3.621195155835	2
15	8632	3.621195155835	3
15	8657	3.629699155835	2
15	8657	3.629699155835	3
15	8687	3.638203155835	2
15	8687	3.638203155835	3
15	8712	3.646707155835	2
15	8712	3.646707155835	3
15	8742	3.655211155835	2
15	8765	3.663355801921	3
15	8788	3.671859801921	2
15	8788	3.671859801921	3
15	8803	3.680363801921	2
15	8803	3.680363801921	3
15	8826	3.688867801921	2
15	8826	3.688867801921	3
15	8851	3.697371801921	2
15	8879	3.703429835309	3
15	8904	3.711933835309	2
15	8904	3.711933835309	3
15	8930	3.720437835309	2
15	8930	3.720437835309	3
15	8950	3.728941835309	2
15	8950	3.728941835309	3
15	8969	3.737445835309	2
15	8969	3.737445835309	3
15	8998	3.745949835309	2
15	8998	3.745949835309	3
15	9028	3.754453835309	2
15	9065	3.774753030799	3
15	9075	3.783257030799	2
15	9075	3.783257030799	3
15	9093	3.791761030799	2
15	9130	3.81613337708	3
15	9140	3.82463737708	2
15	9140	3.82463737708	3
15	9166	3.83314137708	2
15	9166	3.83314137708	3
15	9191	3.84164537708	2
15	9191	3.84164537708	3
15	9221	3.85014937708	2
15	9244	3.855542552587	3
15	9267	3.864046552587	2
15	9267	3.864046552587	3
15	9278	3.872550552587	2
15	9294	3.872581250322	3
15	9315	3.881085250322	2
15	9337	3.89253683969	3
15	9348	3.90104083969	2
15	9348	3.90104083969	3
15	9366	3.90954483969	2
15	9389	3.916066003285	3
15	9408	3.924570003285	2
15	9418	3.937301441164	3
15	9432	3.945805441164	2
15	9432	3.945805441164	3
15	9454	3.954309441164	2
15	9454	3.954309441164	3
15	9483	3.962813441164	2
15	9483	3.962813441164	3
15	9517	3.971317441164	2
15	9517	3.971317441164	3
15	9546	3.979821441164	2
15	9546	3.979821441164	3
15	9580	3.988325441164	2
15	9580	3.988325441164	3
15	9609	3.996829441164	2
15	9609	3.996829441164	3
15	9643	4.005333441164	2
15	9643	4.005333441164	3
15	9668	4.013837441164	2
15	9668	4.013837441164	3
15	9702	4.022341441164	2
15	9702	4.022341441164	3
15	9731	4.030845441164	2
15	9731	4.030845441164	3
15	9761	4.039349441164	2
15	9795	4.048468178279	3
15	9803	4.056972178279	2
15	9819	4.057012275066	3
15	9844	4.065516275066	2
15	9844	4.065516275066	3
15	9874	4.074020275066	2
15	9874	4.074020275066	3
15	9886	4.082524275066	2
15	9886	4.082524275066	3
15	9906	4.091028275066	2
15	9929	4.096369917771	3
15	9948	4.104873917771	2
15	9957	4.110094205218	3
15	9976	4.118598205218	2
15	9976	4.118598205218	3
15	9994	4.127102205218	2
15	9994	4.127102205218	3
15	10019	4.135606205218	2
15	10019	4.135606205218	3
15	10057	4.144110205218	2
15	10057	4.144110205218	3
15	10082	4.152614205218	2
15	10082	4.152614205218	3
15	10116	4.161118205218	2
15	10116	4.161118205218	3
15	10141	4.169622205218	2
15	10197	4.191104568732	3
15	10204	4.199608568732	2
15	10220	4.206175290544	3
15	10245	4.214679290544	2
15	10245	4.214679290544	3
15	10271	4.223183290544	2
15	10271	4.223183290544	3
15	10283	4.231687290544	2
15	10316	4.247599084151	3
15	10338	4.256103084151	2
15	10338	4.256103084151	3
15	10357	4.264607084151	2
15	10357	4.264607084151	3
15	10380	4.273111084151	2
15	10380	4.273111084151	3
15	10405	4.281615084151	2
15	10405	4.281615084151	3
15	10435	4.290119084151	2
15	10456	4.290471354355	3
15	10475	4.298975354355	2
15	10485	4.300226134689	3
15	10500	4.308730134689	2
15	10500	4.308730134689	3
15	10523	4.317234134689	2
15	10523	4.317234134689	3
15	10548	4.325738134689	2
15	10548	4.325738134689	3
15	10590	4.334242134689	2
15	10590	4.334242134689	3
15	10623	4.342746134689	2
15	10623	4.342746134689	3
15	10661	4.351250134689	2
15	10661	4.351250134689	3
15	10686	4.359754134689	2
15	10686	4.359754134689	3
15	10716	4.368258134689	2
15	10716	4.368258134689	3
15	10741	4.376762134689	2
15	10741	4.376762134689	3
15	10779	4.385266134689	2
15	10779	4.385266134689	3
15	10804	4.393770134689	2
15	10804	4.393770134689	3
15	10838	4.402274134689	2
15	10838	4.402274134689	3
15	10863	4.410778134689	2
15	10863	4.410778134689	3
15	10893	4.419282134689	2
15	10916	4.422491790324	3
15	10943	4.430995790324	2
15	10943	4.430995790324	3
15	10958	4.439499790324	2
15	10958	4.439499790324	3
15	10977	4.448003790324	2
15	10977	4.448003790324	3
15	11006	4.456507790324	2
15	11006	4.456507790324	3
15	11044	4.465011790324	2
15	11044	4.465011790324	3
15	11069	4.473515790324	2
15	11069	4.473515790324	3
15	11103	4.482019790324	2
15	11103	4.482019790324	3
15	11128	4.490523790324	2
15	11156	4.497142440849	3
15	11189	4.505646440849	2
15	11189	4.505646440849	3
15	11215	4.514150440849	2
15	11215	4.514150440849	3
15	11227	4.522654440849	2
15	11227	4.522654440849	3
15	11246	4.531158440849	2
15	11246	4.531158440849	3
15	11271	4.539662440849	2
15	11315	4.550141536884	3
15	11333	4.558645536884	2
15	11341	4.559933759652	3
15	11352	4.568437759652	2
15	11352	4.568437759652	3
15	11375	4.576941759652	2
15	11375	4.576941759652	3
15	11400	4.585445759652	2
15	11444	4.596683786519	3
15	11466	4.605187786519	2
15	11466	4.605187786519	3
15	11477	4.613691786519	2
15	11523	4.657344237931	3
15	11537	4.665848237931	2
15	11537	4.665848237931	3
15	11559	4.674352237931	2
15	11559	4.674352237931	3
15	11584	4.682856237931	2
15	11584	4.682856237931	3
15	11614	4.691360237931	2
15	11650	4.707430854816	3
15	11657	4.715934854816	2
15	11701	4.740558108284	3
15	11712	4.749062108284	2
15	11712	4.749062108284	3
15	11730	4.757566108284	2
15	11753	4.763285136582	3
15	11772	4.771789136582	2
15	11781	4.779553758748	3
15	11796	4.788057758748	2
15	11796	4.788057758748	3
15	11818	4.796561758748	2
15	11818	4.796561758748	3
15	11847	4.805065758748	2
15	11847	4.805065758748	3
15	11881	4.813569758748	2
15	11881	4.813569758748	3
15	11906	4.822073758748	2
15	11906	4.822073758748	3
15	11940	4.830577758748	2
15	11940	4.830577758748	3
15	11965	4.839081758748	2
15	11991	4.839221654458	3
15	12012	4.847725654458	2
15	12022	4.852905000981	3
15	12041	4.861409000981	2
15	12049	4.864179024811	3
15	12077	4.872683024811	2
15	12077	4.872683024811	3
15	12095	4.881187024811	2
15	12095	4.881187024811	3
15	12120	4.889691024811	2
15	12120	4.889691024811	3
15	12154	4.898195024811	2
15	12154	4.898195024811	3
15	12183	4.906699024811	2
15	12183	4.906699024811	3
15	12217	4.915203024811	2
15	12217	4.915203024811	3
15	12246	4.923707024811	2
15	12246	4.923707024811	3
15	12276	4.932211024811	2
15	12276	4.932211024811	3
15	12309	4.940715024811	2
15	12309	4.940715024811	3
15	12343	4.949219024811	2
15	12343	4.949219024811	3
15	12368	4.957723024811	2
15	12368	4.957723024811	3
15	12402	4.966227024811	2
15	12402	4.966227024811	3
15	12431	4.974731024811	2
15	12431	4.974731024811	3
15	12465	4.983235024811	2
15	12465	4.983235024811	3
15	12490	4.991739024811	2
15	12490	4.991739024811	3
15	12520	5.000243024811	2
15	12557	5.02333767368	3
15	12567	5.03184167368	2
15	12567	5.03184167368	3
15	12597	5.04034567368	2
15	12597	5.04034567368	3
15	12622	5.04884967368	2
15	12622	5.04884967368	3
15	12652	5.05735367368	2
15	12652	5.05735367368	3
15	12681	5.06585767368	2
15	12681	5.06585767368	3
15	12711	5.07436167368	2
15	12734	5.078459817416	3
15	12753	5.086963817416	2
15	12761	5.090720437585	3
15	12773	5.099224437585	2
15	12773	5.099224437585	3
15	12795	5.107728437585	2
15	12795	5.107728437585	3
15	12820	5.116232437585	2
15	12848	5.120153448829	3
15	12873	5.128657448829	2
15	12873	5.128657448829	3
15	12899	5.137161448829	2
15	12899	5.137161448829	3
15	12915	5.145665448829	2
15	12915	5.145665448829	3
15	12938	5.154169448829	2
15	12938	5.154169448829	3
15	12963	5.162673448829	2
15	13019	5.184035463062	3
15	13026	5.192539463062	2
15	13058	5.20712032591	3
15	13080	5.21562432591	2
15	13080	5.21562432591	3
15	13095	5.22412832591	2
15	13095	5.22412832591	3
15	13114	5.23263232591	2
15	13150	5.24283184969	3
15	13157	5.25133584969	2
15	13173	5.258915161234	3
15	13198	5.267419161234	2
15	13198	5.267419161234	3
15	13220	5.275923161234	2
15	13231	5.307674791215	3
15	13241	5.316178791215	2
15	13241	5.316178791215	3
15	13263	5.324682791215	2
15	13263	5.324682791215	3
15	13288	5.333186791215	2
15	13316	5.335274572258	3
15	13341	5.343778572258	2
15	13341	5.343778572258	3
15	13363	5.352282572258	2
15	13374	5.375658368749	3
15	13384	5.384162368749	2
15	13384	5.384162368749	3
15	13406	5.392666368749	2
15	13406	5.392666368749	3
15	13435	5.401170368749	2
15	13435	5.401170368749	3
15	13465	5.409674368749	2
15	13501	5.426615755098	3
15	13520	5.435119755098	2
15	13520	5.435119755098	3
15	13542	5.443623755098	2
15	13542	5.443623755098	3
15	13567	5.452127755098	2
15	13567	5.452127755098	3
15	13597	5.460631755098	2
15	13597	5.460631755098	3
15	13622	5.469135755098	2
15	13648	5.469314401828	3
15	13673	5.477818401828	2
15	13673	5.477818401828	3
15	13700	5.486322401828	2
15	13700	5.486322401828	3
15	13712	5.494826401828	2
15	13746	5.510300217269	3
15	13768	5.518804217269	2
15	13768	5.518804217269	3
15	13787	5.527308217269	2
15	13787	5.527308217269	3
15	13814	5.535812217269	2
15	13814	5.535812217269	3
15	13839	5.544316217269	2
15	13839	5.544316217269	3
15	13873	5.552820217269	2
15	13873	5.552820217269	3
15	13898	5.561324217269	2
15	13898	5.561324217269	3
15	13932	5.569828217269	2
15	13932	5.569828217269	3
15	13961	5.578332217269	2
15	13961	5.578332217269	3
15	13995	5.586836217269	2
15	13995	5.586836217269	3
15	14020	5.595340217269	2
15	14064	5.60716824394	3
15	14086	5.61567224394	2
15	14086	5.61567224394	3
15	14097	5.62417624394	2
15	14114	5.628463042899	3
15	14135	5.636967042899	2
15	14143	5.638188960665	3
15	14165	5.646692960665	2
15	14165	5.646692960665	3
15	14181	5.655196960665	2
15	14181	5.655196960665	3
15	14204	5.663700960665	2
15	14204	5.663700960665	3
15	14245	5.672204960665	2
15	14245	5.672204960665	3
15	14275	5.680708960665	2
15	14275	5.680708960665	3
15	14304	5.689212960665	2
15	14304	5.689212960665	3
15	14334	5.697716960665	2
15	14334	5.697716960665	3
15	14363	5.706220960665	2
15	14363	5.706220960665	3
15	14397	5.714724960665	2
15	14397	5.714724960665	3
15	14426	5.723228960665	2
15	14426	5.723228960665	3
15	14460	5.731732960665	2
15	14460	5.731732960665	3
15	14485	5.740236960665	2
15	14485	5.740236960665	3
15	14519	5.748740960665	2
15	14519	5.748740960665	3
15	14552	5.757244960665	2
15	14552	5.757244960665	3
15	14582	5.765748960665	2
15	14582	5.765748960665	3
15	14607	5.774252960665	2
15	14651	5.789703219809	3
15	14677	5.798207219809	2
15	14677	5.798207219809	3
15	14688	5.806711219809	2
15	14688	5.806711219809	3
15	14707	5.815215219809	2
15	14744	5.837530314119	3
15	14762	5.846034314119	2
15	14762	5.846034314119	3
15	14780	5.854538314119	2
15	14780	5.854538314119	3
15	14809	5.863042314119	2
15	14809	5.863042314119	3
15	14839	5.871546314119	2
15	14839	5.871546314119	3
15	14864	5.880050314119	2
15	14920	5.901004659846	3
15	14931	5.909508659846	2
15	14931	5.909508659846	3
15	14949	5.918012659846	2
15	14986	5.946939515039	3
15	14996	5.955443515039	2
15	14996	5.955443515039	3
15	15014	5.963947515039	2
15	15048	5.973525212147	3
15	15056	5.982029212147	2
15	15073	5.988322276874	3
15	15098	5.996826276874	2
15	15098	5.996826276874	3
15	15120	6.005330276874	2
15	15131	6.019257191921	3
15	15141	6.027761191921	2
15	15141	6.027761191921	3
15	15167	6.036265191921	2
15	15167	6.036265191921	3
15	15192	6.044769191921	2
15	15192	6.044769191921	3
15	15222	6.053273191921	2
15	15259	6.077146741567	3
15	15269	6.085650741567	2
15	15269	6.085650741567	3
15	15287	6.094154741567	2
15	15323	6.107172444793	3
15	15334	6.115676444793	2
15	15334	6.115676444793	3
15	15352	6.124180444793	2
15	15388	6.138380975016	3
15	15395	6.146884975016	2
15	15411	6.147001365039	3
15	15431	6.155505365039	2
15	15439	6.155576975288	3
15	15461	6.164080975288	2
15	15461	6.164080975288	3
15	15477	6.172584975288	2
15	15477	6.172584975288	3
15	15497	6.181088975288	2
15	15534	6.205250229432	3
15	15540	6.213754229432	2
15	15583	6.232053907645	3
15	15590	6.240557907645	2
15	15607	6.245619394025	3
15	15628	6.254123394025	2
15	15647	6.257846832198	3
15	15655	6.266350832198	2
15	15671	6.267385306231	3
15	15700	6.275889306231	2
15	15700	6.275889306231	3
15	15722	6.284393306231	2
15	15722	6.284393306231	3
15	15734	6.292897306231	2
15	15752	6.296412410231	3
15	15773	6.304916410231	2
15	15781	6.308508572717	3
15	15804	6.317012572717	2
15	15804	6.317012572717	3
15	15823	6.325516572717	2
15	15823	6.325516572717	3
15	15846	6.334020572717	2
15	15846	6.334020572717	3
15	15875	6.342524572717	2
15	15875	6.342524572717	3
15	15913	6.351028572717	2
15	15913	6.351028572717	3
15	15942	6.359532572717	2
15	15942	6.359532572717	3
15	15972	6.368036572717	2
15	15972	6.368036572717	3
15	15997	6.376540572717	2
15	15997	6.376540572717	3
15	16035	6.385044572717	2
15	16035	6.385044572717	3
15	16060	6.393548572717	2
15	16060	6.393548572717	3
15	16090	6.402052572717	2
15	16127	6.422822373844	3
15	16133	6.431326373844	2
15	16149	6.436911215486	3
15	16178	6.445415215486	2
15	16178	6.445415215486	3
15	16204	6.453919215486	2
15	16204	6.453919215486	3
15	16216	6.462423215486	2
15	16216	6.462423215486	3
15	16239	6.470927215486	2
15	16239	6.470927215486	3
15	16272	6.479431215486	2
15	16272	6.479431215486	3
15	16306	6.487935215486	2
15	16306	6.487935215486	3
15	16331	6.496439215486	2
15	16331	6.496439215486	3
15	16361	6.504943215486	2
15	16398	6.526245627924	3
15	16404	6.534749627924	2
15	16436	6.547781705292	3
15	16454	6.556285705292	2
15	16464	6.577333436525	3
15	16470	6.585837436525	2
15	16486	6.590539058891	3
15	16511	6.599043058891	2
15	16511	6.599043058891	3
15	16533	6.607547058891	2
15	16542	6.611376859502	3
15	16550	6.619880859502	2
15	16566	6.623926763015	3
15	16591	6.632430763015	2
15	16591	6.632430763015	3
15	16613	6.640934763015	2
15	16624	6.654519809075	3
15	16630	6.663023809075	2
15	16646	6.663902422152	3
15	16666	6.672406422152	2
15	16689	6.720619164514	3
15	16699	6.729123164514	2
15	16699	6.729123164514	3
15	16717	6.737627164514	2
15	16751	6.746136039627	3
15	16763	6.754640039627	2
15	16763	6.754640039627	3
15	16782	6.763144039627	2
15	16818	6.774594045572	3
15	16825	6.783098045572	2
15	16841	6.783889410408	3
15	16861	6.792393410408	2
15	16883	6.810081977079	3
15	16890	6.818585977079	2
15	16922	6.835535830561	3
15	16944	6.844039830561	2
15	16944	6.844039830561	3
15	16959	6.852543830561	2
15	16959	6.852543830561	3
15	16982	6.861047830561	2
15	16982	6.861047830561	3
15	17011	6.869551830561	2
15	17011	6.869551830561	3
15	17045	6.878055830561	2
15	17045	6.878055830561	3
15	17078	6.886559830561	2
15	17078	6.886559830561	3
15	17108	6.895063830561	2
15	17108	6.895063830561	3
15	17145	6.903567830561	2
15	17145	6.903567830561	3
15	17187	6.912071830561	2
15	17187	6.912071830561	3
15	17216	6.920575830561	2
15	17216	6.920575830561	3
15	17250	6.929079830561	2
15	17250	6.929079830561	3
15	17275	6.937583830561	2
15	17275	6.937583830561	3
15	17305	6.946087830561	2
15	17305	6.946087830561	3
15	17334	6.954591830561	2
15	17334	6.954591830561	3
15	17368	6.963095830561	2
15	17368	6.963095830561	3
15	17393	6.971599830561	2
15	17393	6.971599830561	3
15	17431	6.980103830561	2
15	17431	6.980103830561	3
15	17460	6.988607830561	2
15	17460	6.988607830561	3
15	17498	6.997111830561	2
15	17498	6.997111830561	3
15	17527	7.005615830561	2
15	17527	7.005615830561	3
15	17561	7.014119830561	2
15	17561	7.014119830561	3
15	17586	7.022623830561	2
15	17586	7.022623830561	3
15	17616	7.031127830561	2
15	17616	7.031127830561	3
15	17641	7.039631830561	2
15	17641	7.039631830561	3
15	17675	7.048135830561	2
15	17675	7.048135830561	3
15	17700	7.056639830561	2
15	17728	7.065040548472	3
15	17753	7.073544548472	2
15	17753	7.073544548472	3
15	17779	7.082048548472	2
15	17779	7.082048548472	3
15	17795	7.090552548472	2
15	17795	7.090552548472	3
15	17822	7.099056548472	2
15	17822	7.099056548472	3
15	17851	7.107560548472	2
15	17851	7.107560548472	3
15	17885	7.116064548472	2
15	17885	7.116064548472	3
15	17914	7.124568548472	2
15	17914	7.124568548472	3
15	17952	7.133072548472	2
15	17952	7.133072548472	3
15	17981	7.141576548472	2
15	17981	7.141576548472	3
15	18011	7.150080548472	2
15	18011	7.150080548472	3
15	18044	7.158584548472	2
15	18044	7.158584548472	3
15	18074	7.167088548472	2
15	18074	7.167088548472	3
15	18099	7.175592548472	2
15	18099	7.175592548472	3
15	18129	7.184096548472	2
15	18165	7.194471990986	3
15	18172	7.202975990986	2
15	18188	7.207554938024	3
15	18217	7.216058938024	2
15	18217	7.216058938024	3
15	18239	7.224562938024	2
15	18239	7.224562938024	3
15	18251	7.233066938024	2
15	18284	7.245597352266	3
15	18306	7.254101352266	2
15	18306	7.254101352266	3
15	18321	7.262605352266	2
15	18321	7.262605352266	3
15	18344	7.271109352266	2
15	18344	7.271109352266	3
15	18369	7.279613352266	2
15	18413	7.29482101956	3
15	18435	7.30332501956	2
15	18435	7.30332501956	3
15	18446	7.31182901956	2
15	18491	7.333231019829	3
15	18498	7.341735019829	2
15	18514	7.343991249868	3
15	18539	7.352495249868	2
15	18539	7.352495249868	3
15	18561	7.360999249868	2
15	18569	7.361555141641	3
15	18581	7.370059141641	2
15	18581	7.370059141641	3
15	18600	7.378563141641	2
15	18622	7.37964900499	3
15	18640	7.38815300499	2
15	18650	7.39232629692	3
15	18658	7.40083029692	2
15	18690	7.413018999546	3
15	18716	7.421522999546	2
15	18716	7.421522999546	3
15	18727	7.430026999546	2
15	18727	7.430026999546	3
15	18746	7.438530999546	2
15	18783	7.46976915897	3
15	18793	7.47827315897	2
15	18793	7.47827315897	3
15	18811	7.48677715897	2
15	18848	7.510199806629	3
15	18854	7.518703806629	2
15	18870	7.523578208878	3
15	18895	7.532082208878	2
15	18895	7.532082208878	3
15	18921	7.540586208878	2
15	18921	7.540586208878	3
15	18933	7.549090208878	2
15	18978	7.57500366075	3
15	18997	7.58350766075	2
15	18997	7.58350766075	3
15	19015	7.59201166075	2
15	19015	7.59201166075	3
15	19048	7.60051566075	2
15	19048	7.60051566075	3
15	19086	7.60901966075	2
15	19086	7.60901966075	3
15	19111	7.61752366075	2
15	19111	7.61752366075	3
15	19141	7.62602766075	2
15	19141	7.62602766075	3
15	19174	7.63453166075	2
15	19174	7.63453166075	3
15	19212	7.64303566075	2
15	19212	7.64303566075	3
15	19237	7.65153966075	2
15	19237	7.65153966075	3
15	19271	7.66004366075	2
15	19271	7.66004366075	3
15	19296	7.66854766075	2
15	19296	7.66854766075	3
15	19326	7.67705166075	2
15	19326	7.67705166075	3
15	19351	7.68555566075	2
15	19377	7.686411136594	3
15	19398	7.694915136594	2
15	19422	7.720329424241	3
15	19432	7.728833424241	2
15	19432	7.728833424241	3
15	19454	7.737337424241	2
15	19454	7.737337424241	3
15	19479	7.745841424241	2
15	19523	7.758544418795	3
15	19541	7.767048418795	2
15	19550	7.776764848576	3
15	19561	7.785268848576	2
15	19561	7.785268848576	3
15	19579	7.793772848576	2
15	19602	7.796994592516	3
15	19625	7.805498592516	2
15	19625	7.805498592516	3
15	19636	7.814002592516	2
15	19669	7.826992452984	3
15	19695	7.835496452984	2
15	19695	7.835496452984	3
15	19710	7.844000452984	2
15	19710	7.844000452984	3
15	19737	7.852504452984	2
15	19737	7.852504452984	3
15	19762	7.861008452984	2
15	19762	7.861008452984	3
15	19792	7.869512452984	2
15	19792	7.869512452984	3
15	19817	7.878016452984	2
15	19873	7.897165699269	3
15	19880	7.905669699269	2
15	19924	7.924393328308	3
15	19935	7.932897328308	2
15	19935	7.932897328308	3
15	19957	7.941401328308	2
15	19957	7.941401328308	3
15	19986	7.949905328308	2
15	19986	7.949905328308	3
15	20020	7.958409328308	2
15	20020	7.958409328308	3
15	20045	7.966913328308	2
15	20101	7.993271079953	3
15	20116	8.001775079953	2
15	20116	8.001775079953	3
15	20138	8.010279079953	2
15	20138	8.010279079953	3
15	20179	8.018783079953	2
15	20179	8.018783079953	3
15	20209	8.027287079953	2
15	20209	8.027287079953	3
15	20234	8.035791079953	2
15	20234	8.035791079953	3
15	20268	8.044295079953	2
15	20268	8.044295079953	3
15	20305	8.052799079953	2
15	20305	8.052799079953	3
15	20339	8.061303079953	2
15	20339	8.061303079953	3
15	20364	8.069807079953	2
15	20364	8.069807079953	3
15	20398	8.078311079953	2
15	20398	8.078311079953	3
15	20427	8.086815079953	2
15	20427	8.086815079953	3
15	20457	8.095319079953	2
15	20457	8.095319079953	3
15	20482	8.103823079953	2
15	20482	8.103823079953	3
15	20516	8.112327079953	2
15	20516	8.112327079953	3
15	20541	8.120831079953	2
15	20541	8.120831079953	3
15	20579	8.129335079953	2
15	20579	8.129335079953	3
15	20608	8.137839079953	2
15	20608	8.137839079953	3
15	20638	8.146343079953	2
15	20638	8.146343079953	3
15	20663	8.154847079953	2
15	20689	8.155303845578	3
15	20710	8.163807845578	2
15	20731	8.173246618996	3
15	20743	8.181750618996	2
15	20743	8.181750618996	3
15	20762	8.190254618996	2
15	20785	8.192226006808	3
15	20804	8.200730006808	2
15	20812	8.202120867486	3
15	20823	8.210624867486	2
15	20823	8.210624867486	3
15	20850	8.219128867486	2
15	20850	8.219128867486	3
15	20875	8.227632867486	2
15	20875	8.227632867486	3
15	20913	8.236136867486	2
15	20913	8.236136867486	3
15	20938	8.244640867486	2
15	20938	8.244640867486	3
15	20968	8.253144867486	2
15	20991	8.258313855068	3
15	21010	8.266817855068	2
15	21019	8.272066791489	3
15	21026	8.280570791489	2
15	21069	8.29869833775	3
15	21080	8.30720233775	2
15	21080	8.30720233775	3
15	21099	8.31570633775	2
15	21135	8.331930038065	3
15	21142	8.340434038065	2
15	21187	8.370059205523	3
15	21193	8.378563205523	2
15	21225	8.389153632683	3
15	21243	8.397657632683	2
15	21253	8.447204682072	3
15	21263	8.455708682072	2
15	21263	8.455708682072	3
15	21281	8.464212682072	2
15	21317	8.475104313479	3
15	21324	8.483608313479	2
15	21355	8.49277566783	3
15	21373	8.50127966783	2
15	21382	8.508073885261	3
15	21390	8.516577885261	2
15	21406	8.520116177916	3
15	21431	8.528620177916	2
15	21431	8.528620177916	3
15	21457	8.537124177916	2
15	21457	8.537124177916	3
15	21485	8.545628177916	2
15	21485	8.545628177916	3
15	21512	8.554132177916	2
15	21512	8.554132177916	3
15	21545	8.562636177916	2
15	21545	8.562636177916	3
15	21575	8.571140177916	2
15	21575	8.571140177916	3
15	21600	8.579644177916	2
15	21600	8.579644177916	3
15	21634	8.588148177916	2
15	21634	8.588148177916	3
15	21659	8.596652177916	2
15	21659	8.596652177916	3
15	21689	8.605156177916	2
15	21689	8.605156177916	3
15	21718	8.613660177916	2
15	21718	8.613660177916	3
15	21748	8.622164177916	2
15	21748	8.622164177916	3
15	21773	8.630668177916	2
15	21815	8.640104220043	3
15	21838	8.648608220043	2
15	21838	8.648608220043	3
15	21849	8.657112220043	2
15	21867	8.659925473703	3
15	21892	8.668429473703	2
15	21892	8.668429473703	3
15	21922	8.676933473703	2
15	21922	8.676933473703	3
15	21942	8.685437473703	2
15	21942	8.685437473703	3
15	21973	8.693941473703	2
15	21973	8.693941473703	3
15	21998	8.702445473703	2
15	21998	8.702445473703	3
15	22028	8.710949473703	2
15	22028	8.710949473703	3
15	22057	8.719453473703	2
15	22057	8.719453473703	3
15	22087	8.727957473703	2
15	22087	8.727957473703	3
15	22120	8.736461473703	2
15	22120	8.736461473703	3
15	22150	8.744965473703	2
15	22150	8.744965473703	3
15	22175	8.753469473703	2
15	22175	8.753469473703	3
18	24	0.030819784508	3
18	43	0.039323784508	2
18	69	0.047827784508	3
18	99	0.056331784508	2
18	160	0.079507948781	3
18	170	0.088011948781	2
18	226	0.106537434867	3
18	249	0.115041434867	2
18	313	0.158820737713	3
18	327	0.167324737713	2
18	377	0.185126214548	3
18	392	0.193630214548	2
18	437	0.212194749519	3
18	455	0.220698749519	2
18	517	0.249948322301	3
18	535	0.258452322301	2
18	603	0.286722568705	3
18	626	0.295226568705	2
18	654	0.303730568705	3
18	693	0.312234568705	2
18	733	0.320738568705	3
18	764	0.329242568705	2
18	792	0.337746568705	3
18	819	0.346250568705	2
18	851	0.354754568705	3
18	882	0.363258568705	2
18	910	0.371762568705	3
18	941	0.380266568705	2
18	969	0.388770568705	3
18	995	0.397274568705	2
18	1054	0.417397035406	3
18	1064	0.425901035406	2
18	1106	0.452150334328	3
18	1128	0.460654334328	2
18	1191	0.481864343906	3
18	1206	0.490368343906	2
18	1270	0.508831556035	3
18	1291	0.517335556035	2
18	1317	0.525839556035	3
18	1338	0.534343556035	2
18	1380	0.555900916367	3
18	1398	0.564404916367	2
18	1460	0.645012268475	3
18	1482	0.653516268475	2
18	1539	0.672483258719	3
18	1562	0.680987258719	2
18	1625	0.699771810129	3
18	1640	0.708275810129	2
18	1700	0.75827638295	3
18	1722	0.76678038295	2
18	1785	0.788319615521	3
18	1800	0.796823615521	2
18	1845	0.839497646529	3
18	1854	0.848001646529	2
18	1924	0.873312505259	3
18	1944	0.881816505259	2
18	1972	0.890320505259	3
18	1999	0.898824505259	2
18	2025	0.907328505259	3
18	2046	0.915832505259	2
18	2094	0.935135454694	3
18	2113	0.943639454694	2
18	2139	0.952143454694	3
18	2169	0.960647454694	2
18	2216	0.987841572332	3
18	2225	0.996345572332	2
18	2273	1.017888513729	3
18	2292	1.026392513729	2
18	2318	1.034896513729	3
18	2339	1.043400513729	2
18	2395	1.063389242816	3
18	2405	1.071893242816	2
18	2447	1.0932162311	3
18	2456	1.1017202311	2
18	2512	1.123699885196	3
18	2527	1.132203885196	2
18	2555	1.140707885196	3
18	2586	1.149211885196	2
18	2618	1.157715885196	3
18	2644	1.166219885196	2
18	2695	1.185522714298	3
18	2714	1.194026714298	2
18	2750	1.202530714298	3
18	2785	1.211034714298	2
18	2817	1.219538714298	3
18	2844	1.228042714298	2
18	2880	1.236546714298	3
18	2911	1.245050714298	2
18	2939	1.253554714298	3
18	2970	1.262058714298	2
18	3002	1.270562714298	3
18	3029	1.279066714298	2
18	3055	1.287570714298	3
18	3085	1.296074714298	2
18	3147	1.339206113083	3
18	3165	1.347710113083	2
18	3233	1.406154040376	3
18	3247	1.414658040376	2
18	3306	1.433622182847	3
18	3329	1.442126182847	2
18	3386	1.461998237008	3
18	3396	1.470502237008	2
18	3438	1.493320474267	3
18	3456	1.501824474267	2
18	3523	1.526051243058	3
18	3543	1.534555243058	2
18	3575	1.543059243058	3
18	3606	1.551563243058	2
18	3638	1.560067243058	3
18	3664	1.568571243058	2
18	3728	1.585760413618	3
18	3744	1.594264413618	2
18	3818	1.629021140385	3
18	3833	1.637525140385	2
18	3869	1.646029140385	3
18	3896	1.654533140385	2
18	3924	1.663037140385	3
18	3950	1.671541140385	2
18	4023	1.696946605387	3
18	4039	1.705450605387	2
18	4067	1.713954605387	3
18	4093	1.722458605387	2
18	4144	1.74879823244	3
18	4163	1.75730223244	2
18	4199	1.76580623244	3
18	4230	1.77431023244	2
18	4262	1.78281423244	3
18	4289	1.79131823244	2
18	4321	1.79982223244	3
18	4347	1.80832623244	2
18	4398	1.833138029903	3
18	4421	1.841642029903	2
18	4449	1.850146029903	3
18	4480	1.858650029903	2
18	4506	1.867154029903	3
18	4527	1.875658029903	2
18	4593	1.894952622621	3
18	4609	1.903456622621	2
18	4635	1.911960622621	3
18	4656	1.920464622621	2
18	4704	1.943621752774	3
18	4727	1.952125752774	2
18	4767	1.960629752774	3
18	4794	1.969133752774	2
18	4826	1.977637752774	3
18	4853	1.986141752774	2
18	4881	1.994645752774	3
18	4907	2.003149752774	2
18	4973	2.033822733008	3
18	4992	2.042326733008	2
18	5032	2.050830733008	3
18	5063	2.059334733008	2
18	5091	2.067838733008	3
18	5118	2.076342733008	2
18	5150	2.084846733008	3
18	5176	2.093350733008	2
18	5221	2.123457610612	3
18	5239	2.131961610612	2
18	5307	2.163968818268	3
18	5326	2.172472818268	2
18	5358	2.180976818268	3
18	5384	2.189480818268	2
18	5435	2.245868655907	3
18	5449	2.254372655907	2
18	5509	2.28720549112	3
18	5527	2.29570949112	2
18	5574	2.343936827891	3
18	5600	2.352440827891	2
18	5662	2.370640588532	3
18	5683	2.379144588532	2
18	5711	2.387648588532	3
18	5737	2.396152588532	2
18	5782	2.421988754898	3
18	5808	2.430492754898	2
18	5867	2.452690409732	3
18	5882	2.461194409732	2
18	5942	2.515982870741	3
18	5960	2.524486870741	2
18	6022	2.560044175894	3
18	6040	2.568548175894	2
18	6102	2.59776639192	3
18	6120	2.60627039192	2
18	6172	2.624025555152	3
18	6192	2.632529555152	2
18	6218	2.641033555152	3
18	6239	2.649537555152	2
18	6290	2.6673657284	3
18	6306	2.6758697284	2
18	6332	2.6843737284	3
18	6362	2.6928777284	2
18	6409	2.726037982321	3
18	6427	2.734541982321	2
18	6502	2.755500183227	3
18	6518	2.764004183227	2
18	6546	2.772508183227	3
18	6577	2.781012183227	2
18	6603	2.789516183227	3
18	6633	2.798020183227	2
18	6694	2.819805201319	3
18	6713	2.828309201319	2
18	6781	2.865288370283	3
18	6795	2.873792370283	2
18	6846	2.907690668998	3
18	6860	2.916194668998	2
18	6919	2.9387731416	3
18	6938	2.9472771416	2
18	7005	2.968977773352	3
18	7025	2.977481773352	2
18	7051	2.985985773352	3
18	7081	2.994489773352	2
18	7138	3.015607704531	3
18	7153	3.024111704531	2
18	7185	3.032615704531	3
18	7216	3.041119704531	2
18	7242	3.049623704531	3
18	7272	3.058127704531	2
18	7347	3.082928827189	3
18	7363	3.091432827189	2
18	7399	3.099936827189	3
18	7430	3.108440827189	2
18	7462	3.116944827189	3
18	7489	3.125448827189	2
18	7525	3.133952827189	3
18	7560	3.142456827189	2
18	7588	3.150960827189	3
18	7623	3.159464827189	2
18	7659	3.167968827189	3
18	7686	3.176472827189	2
18	7714	3.184976827189	3
18	7745	3.193480827189	2
18	7773	3.201984827189	3
18	7800	3.210488827189	2
18	7826	3.218992827189	3
18	7847	3.227496827189	2
18	7910	3.258730422492	3
18	7929	3.267234422492	2
18	7961	3.275738422492	3
18	7987	3.284242422492	2
18	8053	3.309956957785	3
18	8072	3.318460957785	2
18	8098	3.326964957785	3
18	8119	3.335468957785	2
18	8175	3.354035964408	3
18	8194	3.362539964408	2
18	8262	3.391537107776	3
18	8276	3.400041107776	2
18	8327	3.422147501946	3
18	8341	3.430651501946	2
18	8401	3.486467454306	3
18	8410	3.494971454306	2
18	8467	3.528453268319	3
18	8476	3.536957268319	2
18	8518	3.578875581434	3
18	8540	3.587379581434	2
18	8611	3.612691689798	3
18	8635	3.621195689798	2
18	8663	3.629699689798	3
18	8690	3.638203689798	2
18	8718	3.646707689798	3
18	8744	3.655211689798	2
18	8809	3.680364335884	3
18	8829	3.688868335884	2
18	8855	3.697372335884	3
18	8885	3.705876335884	2
18	8956	3.728942369272	3
18	8972	3.737446369272	2
18	9004	3.745950369272	3
18	9030	3.754454369272	2
18	9081	3.783257564762	3
18	9095	3.791761564762	2
18	9146	3.824637911043	3
18	9169	3.833141911043	2
18	9197	3.841645911043	3
18	9223	3.850149911043	2
18	9282	3.87255108655	3
18	9301	3.88105508655	2
18	9354	3.901041373653	3
18	9368	3.909545373653	2
18	9438	3.945805975127	3
18	9457	3.954309975127	2
18	9489	3.962813975127	3
18	9520	3.971317975127	2
18	9552	3.979821975127	3
18	9583	3.988325975127	2
18	9615	3.996829975127	3
18	9646	4.005333975127	2
18	9674	4.013837975127	3
18	9705	4.022341975127	2
18	9737	4.030845975127	3
18	9763	4.039349975127	2
18	9807	4.056972712242	3
18	9830	4.065476712242	2
18	9892	4.082524809029	3
18	9908	4.091028809029	2
18	9982	4.118598739181	3
18	9997	4.127102739181	2
18	10025	4.135606739181	3
18	10060	4.144110739181	2
18	10088	4.152614739181	3
18	10119	4.161118739181	2
18	10145	4.169622739181	3
18	10166	4.178126739181	2
18	10208	4.199609102695	3
18	10226	4.208113102695	2
18	10287	4.231687824507	3
18	10297	4.240191824507	2
18	10363	4.264607618114	3
18	10383	4.273111618114	2
18	10411	4.281615618114	3
18	10437	4.290119618114	2
18	10506	4.308730668652	3
18	10526	4.317234668652	2
18	10554	4.325738668652	3
18	10593	4.334242668652	2
18	10629	4.342746668652	3
18	10664	4.351250668652	2
18	10692	4.359754668652	3
18	10719	4.368258668652	2
18	10747	4.376762668652	3
18	10782	4.385266668652	2
18	10810	4.393770668652	3
18	10841	4.402274668652	2
18	10869	4.410778668652	3
18	10895	4.419282668652	2
18	10964	4.439500324287	3
18	10980	4.448004324287	2
18	11012	4.456508324287	3
18	11047	4.465012324287	2
18	11075	4.473516324287	3
18	11106	4.482020324287	2
18	11132	4.490524324287	3
18	11166	4.499028324287	2
18	11233	4.522654974812	3
18	11249	4.531158974812	2
18	11275	4.539662974812	3
18	11296	4.548166974812	2
18	11358	4.568438293615	3
18	11378	4.576942293615	2
18	11404	4.585446293615	3
18	11425	4.593950293615	2
18	11481	4.613692320482	3
18	11491	4.622196320482	2
18	11543	4.665848771894	3
18	11562	4.674352771894	2
18	11590	4.682856771894	3
18	11616	4.691360771894	2
18	11661	4.715935388779	3
18	11670	4.724439388779	2
18	11718	4.749062642247	3
18	11732	4.757566642247	2
18	11802	4.788058292711	3
18	11821	4.796562292711	2
18	11853	4.805066292711	3
18	11884	4.813570292711	2
18	11912	4.822074292711	3
18	11943	4.830578292711	2
18	11969	4.839082292711	3
18	11999	4.847586292711	2
18	12083	4.872683558774	3
18	12098	4.881187558774	2
18	12126	4.889691558774	3
18	12157	4.898195558774	2
18	12189	4.906699558774	3
18	12220	4.915203558774	2
18	12252	4.923707558774	3
18	12279	4.932211558774	2
18	12315	4.940715558774	3
18	12346	4.949219558774	2
18	12374	4.957723558774	3
18	12405	4.966227558774	2
18	12437	4.974731558774	3
18	12468	4.983235558774	2
18	12496	4.991739558774	3
18	12522	5.000243558774	2
18	12573	5.031842207643	3
18	12600	5.040346207643	2
18	12628	5.048850207643	3
18	12655	5.057354207643	2
18	12687	5.065858207643	3
18	12713	5.074362207643	2
18	12779	5.099224971548	3
18	12798	5.107728971548	2
18	12824	5.116232971548	3
18	12858	5.124736971548	2
18	12921	5.145665982792	3
18	12941	5.154169982792	2
18	12967	5.162673982792	3
18	12988	5.171177982792	2
18	13030	5.192539997025	3
18	13039	5.201043997025	2
18	13101	5.224128859873	3
18	13116	5.232632859873	2
18	13161	5.251336383653	3
18	13179	5.259840383653	2
18	13247	5.316179325178	3
18	13266	5.324683325178	2
18	13292	5.333187325178	3
18	13322	5.341691325178	2
18	13390	5.384162902712	3
18	13409	5.392666902712	2
18	13441	5.401170902712	3
18	13467	5.409674902712	2
18	13526	5.435120289061	3
18	13545	5.443624289061	2
18	13573	5.452128289061	3
18	13600	5.460632289061	2
18	13626	5.469136289061	3
18	13660	5.477640289061	2
18	13716	5.494826935791	3
18	13727	5.503330935791	2
18	13793	5.527308751232	3
18	13817	5.535812751232	2
18	13845	5.544316751232	3
18	13876	5.552820751232	2
18	13904	5.561324751232	3
18	13935	5.569828751232	2
18	13967	5.578332751232	3
18	13998	5.586836751232	2
18	14024	5.595340751232	3
18	14045	5.603844751232	2
18	14101	5.624176777903	3
18	14120	5.632680777903	2
18	14187	5.655197494628	3
18	14207	5.663701494628	2
18	14251	5.672205494628	3
18	14278	5.680709494628	2
18	14310	5.689213494628	3
18	14337	5.697717494628	2
18	14369	5.706221494628	3
18	14400	5.714725494628	2
18	14432	5.723229494628	3
18	14463	5.731733494628	2
18	14491	5.740237494628	3
18	14522	5.748741494628	2
18	14558	5.757245494628	3
18	14585	5.765749494628	2
18	14611	5.774253494628	3
18	14632	5.782757494628	2
18	14694	5.806711753772	3
18	14709	5.815215753772	2
18	14768	5.846034848082	3
18	14783	5.854538848082	2
18	14815	5.863042848082	3
18	14842	5.871546848082	2
18	14868	5.880050848082	3
18	14889	5.888554848082	2
18	14937	5.909509193809	3
18	14951	5.918013193809	2
18	15002	5.955444049002	3
18	15016	5.963948049002	2
18	15060	5.98202974611	3
18	15079	5.99053374611	2
18	15147	6.027761725884	3
18	15170	6.036265725884	2
18	15198	6.044769725884	3
18	15224	6.053273725884	2
18	15275	6.08565127553	3
18	15289	6.09415527553	2
18	15340	6.115676978756	3
18	15354	6.124180978756	2
18	15399	6.146885508979	3
18	15417	6.155389508979	2
18	15483	6.172585509251	3
18	15499	6.181089509251	2
18	15544	6.213754763395	3
18	15553	6.222258763395	2
18	15594	6.240558441608	3
18	15613	6.249062441608	2
18	15659	6.266351366161	3
18	15686	6.274855366161	2
18	15738	6.292897840194	3
18	15758	6.301401840194	2
18	15829	6.32551710668	3
18	15849	6.33402110668	2
18	15881	6.34252510668	3
18	15916	6.35102910668	2
18	15948	6.35953310668	3
18	15975	6.36803710668	2
18	16003	6.37654110668	3
18	16038	6.38504510668	2
[...]
63	137	0.064837118764	1051
63	208	0.096517283037	1051
63	283	0.123546769123	1051
63	354	0.175830071969	1051
63	419	0.202135548804	1051
63	493	0.229204083775	1051
63	573	0.266957656557	1051
63	1035	0.405779902961	1051
63	1089	0.434406369662	1051
63	1166	0.469159668584	1051
63	1250	0.498873678162	1051
63	1363	0.542848890291	1051
63	1436	0.572910250623	1051
63	1520	0.662021602731	1051
63	1596	0.689492592975	1051
63	1676	0.716781144385	1051
63	1760	0.775285717206	1051
63	1827	0.805328949777	1051
63	1888	0.856506980785	1051
63	2071	0.924337839515	1051
63	2198	0.96915278895	1051
63	2250	1.004850906588	1051
63	2373	1.051905847985	1051
63	2430	1.080398577072	1051
63	2481	1.110225565356	1051
63	2671	1.174725219452	1051
63	3123	1.304580048554	1051
63	3203	1.356215447339	1051
63	3287	1.423163374632	1051
63	3367	1.450631517103	1051
63	3421	1.479007571264	1051
63	3494	1.510329808523	1051
63	3704	1.577076577314	1051
63	3780	1.602769747874	1051
63	3986	1.680046474641	1051
63	4120	1.730963939643	1051
63	4374	1.816831566696	1051
63	4561	1.884163364159	1051
63	4681	1.928969956877	1051
63	4943	2.01165508703	1051
63	5203	2.101856067264	1051
63	5277	2.140466944868	1051
63	5411	2.197986152524	1051
63	5485	2.262877990163	1051
63	5556	2.304214825376	1051
63	5638	2.360946162147	1051
63	5764	2.404657922788	1051
63	5846	2.438998089154	1051
63	5918	2.469699743988	1051
63	5998	2.532992204997	1051
63	6078	2.57705351015	1051
63	6149	2.614775726176	1051
63	6264	2.658042889408	1051
63	6391	2.701383062656	1051
63	6465	2.743047316577	1051
63	6671	2.806525517483	1051
63	6751	2.836814535575	1051
63	6822	2.882297704539	1051
63	6900	2.924700003254	1051
63	6980	2.955782475856	1051
63	7110	3.002995107608	1051
63	7318	3.066633038787	1051
63	7881	3.236002161445	1051
63	8023	3.292747756748	1051
63	8153	3.343974292041	1051
63	8232	3.371045298664	1051
63	8303	3.408546442032	1051
63	8377	3.439156836202	1051
63	8444	3.503476788562	1051
63	8501	3.545462602575	1051
63	8578	3.59588491569	1051
63	8780	3.663717024054	1051
63	8923	3.71438167014	1051
63	9057	3.762959703528	1051
63	9122	3.800266899018	1051
63	9259	3.858655245299	1051
63	9330	3.889560420806	1051
63	9404	3.918050707909	1051
63	9790	4.047855309383	1051
63	9872	4.073982046498	1051
63	9944	4.099534143285	1051
63	10191	4.186632073437	1051
63	10264	4.216618436951	1051
63	10331	4.248697158763	1051
63	10473	4.29862495237	1051
63	10935	4.427788002908	1051
63	11208	4.507533658543	1051
63	11330	4.556672309068	1051
63	11463	4.602455627871	1051
63	11516	4.630701654738	1051
63	11643	4.69986610615	1051
63	11695	4.732944723035	1051
63	11768	4.766071976503	1051
63	12037	4.856091626967	1051
63	12549	5.00874889303	1051
63	12749	5.082867541899	1051
63	12892	5.133242305804	1051
63	13013	5.179683317048	1051
63	13073	5.209549331281	1051
63	13143	5.241138194129	1051
63	13217	5.268345717909	1051
63	13360	5.350196659434	1051
63	13494	5.418180236968	1051
63	13698	5.486145623317	1051
63	13765	5.511836270047	1051
63	14079	5.612350085488	1051
63	14162	5.641186112159	1051
63	14674	5.791262828884	1051
63	14736	5.823721088028	1051
63	14914	5.897060182338	1051
63	14978	5.926518528065	1051
63	15043	5.972453383258	1051
63	15117	5.999039080366	1051
63	15251	6.06177906014	1051
63	15316	6.102660609786	1051
63	15381	6.132686313012	1051
63	15459	6.163894843235	1051
63	15526	6.189594843507	1051
63	15578	6.230764097651	1051
63	15642	6.257567775864	1051
63	15720	6.283360700417	1051
63	15796	6.30990717445	1051
63	16119	6.410558440936	1051
63	16197	6.448336242063	1051
63	16390	6.513449083705	1051
63	16451	6.551759496143	1051
63	16530	6.602847304744	1051
63	16610	6.636890727721	1051
63	16681	6.680033677294	1051
63	16746	6.746133032733	1051
63	16811	6.771649907846	1051
63	16876	6.800107913791	1051
63	16937	6.835595845298	1051
63	17772	7.07364969878	1051
63	18158	7.192602416691	1051
63	18236	7.219985859205	1051
63	18303	7.250076806243	1051
63	18428	7.296623220485	1051
63	18485	7.328838887779	1051
63	18558	7.358744888048	1051
63	18638	7.38706900986	1051
63	18705	7.417840165139	1051
63	18775	7.447036867765	1051
63	18840	7.495283027189	1051
63	18914	7.535713674848	1051
63	18972	7.566100077097	1051
63	19414	7.702565528969	1051
63	19538	7.76285129246	1051
63	19621	7.802278716795	1051
63	19692	7.831012460735	1051
63	19867	7.895026321203	1051
63	19918	7.922679567488	1051
63	20095	7.983923196527	1051
63	20726	8.171856948172	1051
63	20800	8.198760487215	1051
63	21006	8.261650735705	1051
63	21064	8.297580659708	1051
63	21128	8.324212205969	1051
63	21180	8.357443906284	1051
63	21240	8.395573073742	1051
63	21310	8.472718550291	1051
63	21371	8.500618181698	1051
63	21450	8.53358775348	1051
63	21836	8.647678046135	1051
63	21919	8.674122088262	1051
64	172	0.088012482744	1051
64	1066	0.425901569369	1051
64	1340	0.534344089998	1051
64	1856	0.848002180492	1051
64	2048	0.915833039222	1051
64	2227	0.996346106295	1051
64	2341	1.043401047692	1051
64	2407	1.071893776779	1051
64	2458	1.101720765063	1051
64	3398	1.470502770971	1051
64	4529	1.875658563866	1051
64	4658	1.920465156584	1051
64	6241	2.649538089115	1051
64	7849	3.227497361152	1051
64	8121	3.335469491748	1051
64	8412	3.494971988269	1051
64	8478	3.536957802282	1051
64	10168	4.178127273144	1051
64	10299	4.24019235847	1051
64	11298	4.548167508775	1051
64	11427	4.593950827578	1051
64	11493	4.622196854445	1051
64	11672	4.724439922742	1051
64	12990	5.171178516755	1051
64	13041	5.201044530988	1051
64	13729	5.503331469754	1051
64	14047	5.603845285195	1051
64	14634	5.782758028591	1051
64	14891	5.888555382045	1051
64	15555	6.222259297358	1051
64	16419	6.54325469585	1051
64	16905	6.827091045005	1051
64	18267	7.24157200595	1051
64	18396	7.288118420192	1051
64	18462	7.320334087486	1051
64	18673	7.409335364846	1051
64	18949	7.557595276804	1051
64	19506	7.754346492167	1051
64	19652	7.822507660442	1051
64	19844	7.88652152091	1051
64	19895	7.914174767195	1051
64	20072	7.975418396234	1051
64	21041	8.289075859415	1051
64	21157	8.348939105991	1051
64	21208	8.387068273449	1051
64	21339	8.492113381405	1051
64	21800	8.639173245842	1051
65	172	0.088012482744	1051
65	1066	0.425901569369	1051
65	1340	0.534344089998	1051
65	1856	0.848002180492	1051
65	2048	0.915833039222	1051
65	2227	0.996346106295	1051
65	2341	1.043401047692	1051
65	2407	1.071893776779	1051
65	2458	1.101720765063	1051
65	3398	1.470502770971	1051
65	4529	1.875658563866	1051
65	4658	1.920465156584	1051
65	6241	2.649538089115	1051
65	7849	3.227497361152	1051
65	8121	3.335469491748	1051
65	8412	3.494971988269	1051
65	8478	3.536957802282	1051
65	10168	4.178127273144	1051
65	10299	4.24019235847	1051
65	11298	4.548167508775	1051
65	11427	4.593950827578	1051
65	11493	4.622196854445	1051
65	11672	4.724439922742	1051
65	12990	5.171178516755	1051
65	13041	5.201044530988	1051
65	13729	5.503331469754	1051
65	14047	5.603845285195	1051
65	14634	5.782758028591	1051
65	14891	5.888555382045	1051
65	15555	6.222259297358	1051
65	16419	6.54325469585	1051
65	16905	6.827091045005	1051
65	18267	7.24157200595	1051
65	18396	7.288118420192	1051
65	18462	7.320334087486	1051
65	18673	7.409335364846	1051
65	18949	7.557595276804	1051
65	19506	7.754346492167	1051
65	19652	7.822507660442	1051
65	19844	7.88652152091	1051
65	19895	7.914174767195	1051
65	20072	7.975418396234	1051
65	21041	8.289075859415	1051
65	21157	8.348939105991	1051
65	21208	8.387068273449	1051
65	21339	8.492113381405	1051
65	21800	8.639173245842	1051
66	226	0.1	246720
66	437	0.2	246720
66	654	0.3	246720
66	1054	0.4	493440
66	1270	0.5	246720
66	1460	0.6	246720
66	1700	0.7	246720
66	1845	0.8	164480
66	2025	0.9	246720
66	2273	1	328960
66	2512	1.1	328960
66	2750	1.2	328960
66	3147	1.3	493440
66	3233	1.4	82240
66	3523	1.5	328960
66	3818	1.6	328960
66	4067	1.7	328960
66	4398	1.8	411200
66	4635	1.9	328960
66	4973	2	411200
66	5221	2.1	328960
66	5435	2.2	246720
66	5574	2.3	164480
66	5782	2.4	246720
66	5942	2.5	164480
66	6172	2.6	246720
66	6409	2.7	328960
66	6694	2.8	328960
66	6846	2.9	164480
66	7138	3	328960
66	7462	3.1	411200
66	7773	3.2	411200
66	8053	3.3	328960
66	8327	3.4	328960
66	8467	3.5	164480
66	8611	3.6	164480
66	8956	3.7	411200
66	9146	3.8	246720
66	9354	3.9	246720
66	9674	4	411200
66	9982	4.1	328960
66	10287	4.2	411200
66	10506	4.3	246720
66	10869	4.4	493440
66	11233	4.5	411200
66	11481	4.6	328960
66	11661	4.7	246720
66	11853	4.8	246720
66	12189	4.9	411200
66	12573	5	493440
66	12824	5.1	328960
66	13101	5.2	328960
66	13247	5.3	164480
66	13441	5.4	246720
66	13793	5.5	411200
66	14101	5.6	411200
66	14369	5.7	328960
66	14694	5.8	411200
66	14937	5.9	328960
66	15147	6	246720
66	15340	6.1	246720
66	15544	6.2	246720
66	15829	6.3	328960
66	16137	6.4	411200
66	16408	6.5	328960
66	16554	6.6	164480
66	16705	6.7	164480
66	16894	6.8	246720
66	17151	6.9	328960
66	17533	7	493440
66	17857	7.1	411200
66	18176	7.2	411200
66	18450	7.3	328960
66	18662	7.4	246720
66	18858	7.5	246720
66	19054	7.6	246720
66	19438	7.7	493440
66	19640	7.8	246720
66	19884	7.9	328960
66	20122	8	328960
66	20488	8.1	493440
66	20829	8.2	411200
66	21086	8.3	328960
66	21269	8.4	246720
66	21394	8.5	164480
66	21724	8.6	411200
66	22004	8.7	328960
67	226	0.1	246720
67	437	0.2	246720
67	654	0.3	246720
67	1054	0.4	493440
67	1270	0.5	246720
67	1460	0.6	246720
67	1700	0.7	246720
67	1845	0.8	164480
67	2025	0.9	246720
67	2273	1	328960
67	2512	1.1	328960
67	2750	1.2	328960
67	3147	1.3	493440
67	3233	1.4	82240
67	3523	1.5	328960
67	3818	1.6	328960
67	4067	1.7	328960
67	4398	1.8	411200
67	4635	1.9	328960
67	4973	2	411200
67	5221	2.1	328960
67	5435	2.2	246720
67	5574	2.3	164480
67	5782	2.4	246720
67	5942	2.5	164480
67	6172	2.6	246720
67	6409	2.7	328960
67	6694	2.8	328960
67	6846	2.9	164480
67	7138	3	328960
67	7462	3.1	411200
67	7773	3.2	411200
67	8053	3.3	328960
67	8327	3.4	328960
67	8467	3.5	164480
67	8611	3.6	164480
67	8956	3.7	411200
67	9146	3.8	246720
67	9354	3.9	246720
67	9674	4	411200
67	9982	4.1	328960
67	10287	4.2	411200
67	10506	4.3	246720
67	10869	4.4	493440
67	11233	4.5	411200
67	11481	4.6	328960
67	11661	4.7	246720
67	11853	4.8	246720
67	12189	4.9	411200
67	12573	5	493440
67	12824	5.1	328960
67	13101	5.2	328960
67	13247	5.3	164480
67	13441	5.4	246720
67	13793	5.5	411200
67	14101	5.6	411200
67	14369	5.7	328960
67	14694	5.8	411200
67	14937	5.9	328960
67	15147	6	246720
67	15340	6.1	246720
67	15544	6.2	246720
67	15829	6.3	328960
67	16137	6.4	411200
67	16408	6.5	328960
67	16554	6.6	164480
67	16705	6.7	164480
67	16894	6.8	246720
67	17151	6.9	328960
67	17533	7	493440
67	17857	7.1	411200
67	18176	7.2	411200
67	18450	7.3	328960
67	18662	7.4	246720
67	18858	7.5	246720
67	19054	7.6	246720
67	19438	7.7	493440
67	19640	7.8	246720
67	19884	7.9	328960
67	20122	8	328960
67	20488	8.1	493440
67	20829	8.2	411200
67	21086	8.3	328960
67	21269	8.4	246720
67	21394	8.5	164480
67	21724	8.6	411200
67	22004	8.7	328960
68	238	0.1	657920
68	426	0.2	493440
68	681	0.3	822400
68	1016	0.4	822400
68	1286	0.5	822400
68	1450	0.6	328960
68	1661	0.7	657920
68	1835	0.8	493440
68	2077	0.9	575680
68	2256	1	411200
68	2487	1.1	493440
68	2777	1.2	904640
68	3108	1.3	740160
68	3268	1.4	493440
68	3479	1.5	575680
68	3794	1.6	904640
68	4127	1.7	904640
68	4381	1.8	657920
68	4687	1.9	740160
68	4928	2	657920
68	5211	2.1	740160
68	5419	2.2	575680
68	5564	2.3	411200
68	5771	2.4	575680
68	5932	2.5	493440
68	6114	2.6	575680
68	6399	2.7	657920
68	6651	2.8	740160
68	6839	2.9	575680
68	7116	3	740160
68	7424	3.1	1069120
68	7866	3.2	904640
68	8035	3.3	493440
68	8310	3.4	740160
68	8429	3.5	328960
68	8588	3.6	575680
68	8879	3.7	657920
68	9130	3.8	657920
68	9389	3.9	740160
68	9701	4	904640
68	9957	4.1	657920
68	10220	4.2	657920
68	10485	4.3	740160
68	10916	4.4	1151360
68	11184	4.5	822400
68	11523	4.6	740160
68	11650	4.7	328960
68	11880	4.8	740160
68	12182	4.9	904640
68	12557	5	740160
68	12794	5.1	740160
68	13058	5.2	575680
68	13231	5.3	493440
68	13501	5.4	740160
68	13746	5.5	657920
68	14064	5.6	822400
68	14396	5.7	1069120
68	14744	5.8	740160
68	14920	5.9	411200
68	15131	6	575680
68	15323	6.1	493440
68	15534	6.2	575680
68	15781	6.3	657920
68	16127	6.4	904640
68	16398	6.5	740160
68	16542	6.6	411200
68	16689	6.7	411200
68	16883	6.8	493440
68	17140	6.9	822400
68	17526	7	1151360
68	17849	7.1	740160
68	18188	7.2	740160
68	18434	7.3	657920
68	18690	7.4	657920
68	18848	7.5	411200
68	19079	7.6	822400
68	19422	7.7	657920
68	19669	7.8	657920
68	19924	7.9	575680
68	20137	8	657920
68	20515	8.1	986880
68	20812	8.2	657920
68	21135	8.3	822400
68	21253	8.4	246720
68	21382	8.5	328960
68	21717	8.6	1069120
68	22056	8.7	986880
69	238	0.1	657920
69	426	0.2	493440
69	648	0.3	740160
69	1016	0.4	904640
69	1252	0.5	657920
69	1450	0.6	493440
69	1661	0.7	657920
69	1835	0.8	493440
69	2077	0.9	575680
69	2256	1	411200
69	2487	1.1	493440
69	2744	1.2	740160
69	3108	1.3	904640
69	3227	1.4	411200
69	3479	1.5	657920
69	3794	1.6	904640
69	4036	1.7	740160
69	4381	1.8	822400
69	4606	1.9	657920
69	4928	2	740160
69	5211	2.1	740160
69	5419	2.2	575680
69	5564	2.3	411200
69	5771	2.4	575680
69	5932	2.5	493440
69	6114	2.6	575680
69	6399	2.7	657920
69	6652	2.8	740160
69	6840	2.9	575680
69	7116	3	740160
69	7427	3.1	904640
69	7767	3.2	904640
69	8035	3.3	657920
69	8310	3.4	740160
69	8429	3.5	328960
69	8589	3.6	411200
69	8879	3.7	822400
69	9130	3.8	657920
69	9348	3.9	657920
69	9643	4	822400
69	9957	4.1	822400
69	10220	4.2	657920
69	10485	4.3	740160
69	10838	4.4	986880
69	11189	4.5	904640
69	11466	4.6	740160
69	11650	4.7	411200
69	11847	4.8	575680
69	12183	4.9	904640
69	12557	5	904640
69	12795	5.1	740160
69	13058	5.2	575680
69	13231	5.3	493440
69	13435	5.4	657920
69	13746	5.5	740160
69	14064	5.6	822400
69	14363	5.7	904640
69	14688	5.8	822400
69	14920	5.9	493440
69	15131	6	575680
69	15323	6.1	493440
69	15534	6.2	575680
69	15781	6.3	657920
69	16127	6.4	904640
69	16398	6.5	740160
69	16542	6.6	411200
69	16689	6.7	411200
69	16883	6.8	493440
69	17145	6.9	740160
69	17527	7	986880
69	17851	7.1	904640
69	18188	7.2	822400
69	18435	7.3	657920
69	18690	7.4	657920
69	18848	7.5	411200
69	19048	7.6	575680
69	19422	7.7	904640
69	19625	7.8	575680
69	19924	7.9	657920
69	20116	8	493440
69	20482	8.1	986880
69	20812	8.2	822400
69	21080	8.3	740160
69	21253	8.4	328960
69	21382	8.5	328960
69	21689	8.6	904640
69	21998	8.7	822400
70	256	0.1	246720
70	462	0.2	246720
70	704	0.3	246720
70	1072	0.4	493440
70	1303	0.5	246720
70	1489	0.6	246720
70	1649	0.7	164480
70	1862	0.8	246720
70	2053	0.9	246720
70	2304	1	328960
70	2464	1.1	246720
70	2796	1.2	411200
70	3172	1.3	493440
70	3256	1.4	82240
70	3463	1.5	246720
70	3845	1.6	411200
70	4051	1.7	246720
70	4355	1.8	411200
70	4621	1.9	328960
70	4915	2	411200
70	5246	2.1	411200
70	5458	2.2	246720
70	5607	2.3	164480
70	5815	2.4	246720
70	5967	2.5	164480
70	6127	2.6	164480
70	6434	2.7	411200
70	6720	2.8	328960
70	6869	2.9	164480
70	7165	3	328960
70	7441	3.1	328960
70	7811	3.2	493440
70	8084	3.3	328960
70	8285	3.4	246720
70	8484	3.5	246720
70	8647	3.6	164480
70	8891	3.7	328960
70	9181	3.8	328960
70	9377	3.9	246720
70	9657	4	328960
70	10009	4.1	411200
70	10233	4.2	328960
70	10538	4.3	328960
70	10852	4.4	411200
70	11261	4.5	493440
70	11499	4.6	328960
70	11678	4.7	246720
70	11895	4.8	246720
70	12231	4.9	411200
70	12530	5	411200
70	12810	5.1	328960
70	13047	5.2	328960
70	13278	5.3	246720
70	13475	5.4	246720
70	13735	5.5	328960
70	14052	5.6	411200
70	14411	5.7	411200
70	14718	5.8	411200
70	14960	5.9	328960
70	15182	6	246720
70	15363	6.1	246720
70	15561	6.2	246720
70	15765	6.3	246720
70	16100	6.4	411200
70	16371	6.5	328960
70	16583	6.6	246720
70	16728	6.7	164480
70	16911	6.8	246720
70	17201	6.9	328960
70	17575	7	493440
70	17899	7.1	411200
70	18201	7.2	411200
70	18468	7.3	328960
70	18679	7.4	246720
70	18883	7.5	246720
70	19100	7.6	246720
70	19469	7.7	493440
70	19658	7.8	246720
70	19901	7.9	328960
70	20153	8	328960
70	20530	8.1	493440
70	20865	8.2	411200
70	21110	8.3	328960
70	21292	8.4	246720
70	21423	8.5	164480
70	21703	8.6	328960
70	22042	8.7	411200
71	256	0.1	246720
71	462	0.2	246720
71	704	0.3	246720
71	1072	0.4	493440
71	1303	0.5	246720
71	1489	0.6	246720
71	1649	0.7	164480
71	1862	0.8	246720
71	2053	0.9	246720
71	2304	1	328960
71	2464	1.1	246720
71	2796	1.2	411200
71	3172	1.3	493440
71	3256	1.4	82240
71	3463	1.5	246720
71	3845	1.6	411200
71	4051	1.7	246720
71	4355	1.8	411200
71	4621	1.9	328960
71	4915	2	411200
71	5246	2.1	411200
71	5458	2.2	246720
71	5607	2.3	164480
71	5815	2.4	246720
71	5967	2.5	164480
71	6127	2.6	164480
71	6434	2.7	411200
71	6720	2.8	328960
71	6869	2.9	164480
71	7165	3	328960
71	7441	3.1	328960
71	7811	3.2	493440
71	8084	3.3	328960
71	8285	3.4	246720
71	8484	3.5	246720
71	8647	3.6	164480
71	8891	3.7	328960
71	9181	3.8	328960
71	9377	3.9	246720
71	9657	4	328960
71	10009	4.1	411200
71	10233	4.2	328960
71	10538	4.3	328960
71	10852	4.4	411200
71	11261	4.5	493440
71	11499	4.6	328960
71	11678	4.7	246720
71	11895	4.8	246720
71	12231	4.9	411200
71	12530	5	411200
71	12810	5.1	328960
71	13047	5.2	328960
71	13278	5.3	246720
71	13475	5.4	246720
71	13735	5.5	328960
71	14052	5.6	411200
71	14411	5.7	411200
71	14718	5.8	411200
71	14960	5.9	328960
71	15182	6	246720
71	15363	6.1	246720
71	15561	6.2	246720
71	15765	6.3	246720
71	16100	6.4	411200
71	16371	6.5	328960
71	16583	6.6	246720
71	16728	6.7	164480
71	16911	6.8	246720
71	17201	6.9	328960
71	17575	7	493440
71	17899	7.1	411200
71	18201	7.2	411200
71	18468	7.3	328960
71	18679	7.4	246720
71	18883	7.5	246720
71	19100	7.6	246720
71	19469	7.7	493440
71	19658	7.8	246720
71	19901	7.9	328960
71	20153	8	328960
71	20530	8.1	493440
71	20865	8.2	411200
71	21110	8.3	328960
71	21292	8.4	246720
71	21423	8.5	164480
71	21703	8.6	328960
71	22042	8.7	411200
72	279	0.1	240000
72	415	0.2	160000
72	671	0.3	240000
72	1031	0.4	480000
72	1331	0.5	320000
72	1516	0.6	240000
72	1672	0.7	160000
72	1823	0.8	160000
72	2039	0.9	240000
72	2246	1	320000
72	2477	1.1	320000
72	2767	1.2	320000
72	3119	1.3	480000
72	3283	1.4	160000
72	3490	1.5	240000
72	3776	1.6	320000
72	4084	1.7	320000
72	4370	1.8	400000
72	4649	1.9	320000
72	4939	2	400000
72	5199	2.1	320000
72	5481	2.2	320000
72	5552	2.3	80000
72	5760	2.4	240000
72	5994	2.5	240000
72	6145	2.6	160000
72	6387	2.7	320000
72	6667	2.8	320000
72	6896	2.9	240000
72	7106	3	240000
72	7479	3.1	400000
72	7790	3.2	400000
72	8112	3.3	400000
72	8299	3.4	240000
72	8440	3.5	160000
72	8680	3.6	240000
72	8919	3.7	320000
72	9118	3.8	240000
72	9400	3.9	320000
72	9691	4	320000
72	10042	4.1	400000
72	10260	4.2	320000
72	10571	4.3	320000
72	10886	4.4	400000
72	11204	4.5	400000
72	11459	4.6	320000
72	11691	4.7	320000
72	11870	4.8	160000
72	12206	4.9	400000
72	12545	5	480000
72	12838	5.1	320000
72	13069	5.2	320000
72	13306	5.3	240000
72	13458	5.4	160000
72	13761	5.5	400000
72	14075	5.6	400000
72	14386	5.7	320000
72	14732	5.8	480000
72	14974	5.9	320000
72	15215	6	240000
72	15312	6.1	160000
72	15574	6.2	320000
72	15792	6.3	240000
72	16115	6.4	400000
72	16386	6.5	320000
72	16526	6.6	160000
72	16742	6.7	240000
72	16872	6.8	160000
72	17168	6.9	320000
72	17550	7	480000
72	17874	7.1	400000
72	18232	7.2	480000
72	18481	7.3	320000
72	18701	7.4	240000
72	18910	7.5	240000
72	19071	7.6	160000
72	19410	7.7	480000
72	19617	7.8	240000
72	19914	7.9	400000
72	20202	8	320000
72	20505	8.1	400000
72	20898	8.2	480000
72	21124	8.3	320000
72	21306	8.4	240000
72	21367	8.5	80000
72	21741	8.6	400000
72	22021	8.7	320000

